 --- WARNING: traj_opt is zero, but num_traj is not zero; setting num_traj to zero.
 --- NOTE: sst_update is 0, setting io_form_auxinput4 = 0 and auxinput4_interval = 0 for all domains
 --- NOTE: grid_fdda is 0 for domain      1, setting gfdda interval and ending time to 0 for that domain.
 --- NOTE: both grid_sfdda and pxlsm_soil_nudge are 0 for domain      1, setting sgfdda interval and ending time to 0 for that domain.
 --- NOTE: obs_nudge_opt is 0 for domain      1, setting obs nudging interval and ending time to 0 for that domain.
 bl_pbl_physics /= 4, implies mfshconv must be 0, resetting
 --- NOTE: RRTMG radiation is in use, setting:  levsiz=59, alevsiz=12, no_src_types=6
 --- NOTE: num_soil_layers has been set to      5
 WRF V3.6 MODEL
 DYNAMICS OPTION: Eulerian Mass Coordinate
    alloc_space_field: domain            1 ,               9202288  bytes allocated
   med_initialdata_input: calling input_input
    Ideal cases do not support the hypsometric option.
    MMINLU error on input
Timing for processing wrfinput file (stream 0) for domain        1:    0.01088 elapsed seconds
Timing for Writing wrfout_d01_2016-06-19_12:00:00 for domain        1:    0.41866 elapsed seconds
Timing for Writing wrfstat_d01_2016-06-19_12:00:0 for domain        1:    0.15705 elapsed seconds
 d01 2016-06-19_12:00:00  MMINLU error on input
 d01 2016-06-19_12:00:00 Input data processed for aux input   6 for domain   1
 d01 2016-06-19_12:00:00  MMINLU error on input
 d01 2016-06-19_12:00:00 Input data processed for aux input   7 for domain   1
  Tile Strategy is not specified. Assuming 1D-Y
 WRF TILE   1 IS      1 IE      3 JS      1 JE      3
 WRF NUMBER OF TILES =   1
 solve_em: initializing statistics at time 2016-06-19_12:00:00 on domain   1
Timing for main: time 2016-06-19_12:00:15 on domain   1:    0.63669 elapsed seconds
Timing for main: time 2016-06-19_12:00:30 on domain   1:    0.04546 elapsed seconds
Timing for main: time 2016-06-19_12:00:45 on domain   1:    0.05732 elapsed seconds
Timing for main: time 2016-06-19_12:01:00 on domain   1:    0.04306 elapsed seconds
Timing for main: time 2016-06-19_12:01:15 on domain   1:    0.04358 elapsed seconds
Timing for main: time 2016-06-19_12:01:30 on domain   1:    0.04372 elapsed seconds
Timing for main: time 2016-06-19_12:01:45 on domain   1:    0.04358 elapsed seconds
Timing for main: time 2016-06-19_12:02:00 on domain   1:    0.04258 elapsed seconds
Timing for main: time 2016-06-19_12:02:15 on domain   1:    0.04463 elapsed seconds
Timing for main: time 2016-06-19_12:02:30 on domain   1:    0.04406 elapsed seconds
Timing for main: time 2016-06-19_12:02:45 on domain   1:    0.04707 elapsed seconds
Timing for main: time 2016-06-19_12:03:00 on domain   1:    0.04034 elapsed seconds
Timing for main: time 2016-06-19_12:03:15 on domain   1:    0.04160 elapsed seconds
Timing for main: time 2016-06-19_12:03:30 on domain   1:    0.04118 elapsed seconds
Timing for main: time 2016-06-19_12:03:45 on domain   1:    0.03996 elapsed seconds
Timing for main: time 2016-06-19_12:04:00 on domain   1:    0.03961 elapsed seconds
Timing for main: time 2016-06-19_12:04:15 on domain   1:    0.04112 elapsed seconds
Timing for main: time 2016-06-19_12:04:30 on domain   1:    0.03971 elapsed seconds
Timing for main: time 2016-06-19_12:04:45 on domain   1:    0.04198 elapsed seconds
Timing for main: time 2016-06-19_12:05:00 on domain   1:    0.04059 elapsed seconds
Timing for main: time 2016-06-19_12:05:15 on domain   1:    0.04019 elapsed seconds
Timing for main: time 2016-06-19_12:05:30 on domain   1:    0.03934 elapsed seconds
Timing for main: time 2016-06-19_12:05:45 on domain   1:    0.03985 elapsed seconds
Timing for main: time 2016-06-19_12:06:00 on domain   1:    0.04158 elapsed seconds
Timing for main: time 2016-06-19_12:06:15 on domain   1:    0.04293 elapsed seconds
Timing for main: time 2016-06-19_12:06:30 on domain   1:    0.04257 elapsed seconds
Timing for main: time 2016-06-19_12:06:45 on domain   1:    0.04510 elapsed seconds
Timing for main: time 2016-06-19_12:07:00 on domain   1:    0.04284 elapsed seconds
Timing for main: time 2016-06-19_12:07:15 on domain   1:    0.04429 elapsed seconds
Timing for main: time 2016-06-19_12:07:30 on domain   1:    0.04128 elapsed seconds
Timing for main: time 2016-06-19_12:07:45 on domain   1:    0.04236 elapsed seconds
Timing for main: time 2016-06-19_12:08:00 on domain   1:    0.04242 elapsed seconds
Timing for main: time 2016-06-19_12:08:15 on domain   1:    0.04422 elapsed seconds
Timing for main: time 2016-06-19_12:08:30 on domain   1:    0.04398 elapsed seconds
Timing for main: time 2016-06-19_12:08:45 on domain   1:    0.05129 elapsed seconds
Timing for main: time 2016-06-19_12:09:00 on domain   1:    0.04639 elapsed seconds
Timing for main: time 2016-06-19_12:09:15 on domain   1:    0.04956 elapsed seconds
Timing for main: time 2016-06-19_12:09:30 on domain   1:    0.04644 elapsed seconds
Timing for main: time 2016-06-19_12:09:45 on domain   1:    0.05171 elapsed seconds
Timing for main: time 2016-06-19_12:10:00 on domain   1:    0.05198 elapsed seconds
Timing for Writing wrfout_d01_2016-06-19_12:10:00 for domain        1:    0.02235 elapsed seconds
Timing for Writing wrfstat_d01_2016-06-19_12:10:0 for domain        1:    0.01314 elapsed seconds
 solve_em: initializing statistics at time 2016-06-19_12:10:00 on domain   1
Timing for main: time 2016-06-19_12:10:15 on domain   1:    0.08616 elapsed seconds
Timing for main: time 2016-06-19_12:10:30 on domain   1:    0.05357 elapsed seconds
Timing for main: time 2016-06-19_12:10:45 on domain   1:    0.04949 elapsed seconds
Timing for main: time 2016-06-19_12:11:00 on domain   1:    0.05193 elapsed seconds
Timing for main: time 2016-06-19_12:11:15 on domain   1:    0.04296 elapsed seconds
Timing for main: time 2016-06-19_12:11:30 on domain   1:    0.04810 elapsed seconds
Timing for main: time 2016-06-19_12:11:45 on domain   1:    0.05243 elapsed seconds
Timing for main: time 2016-06-19_12:12:00 on domain   1:    0.04848 elapsed seconds
Timing for main: time 2016-06-19_12:12:15 on domain   1:    0.04211 elapsed seconds
Timing for main: time 2016-06-19_12:12:30 on domain   1:    0.04268 elapsed seconds
Timing for main: time 2016-06-19_12:12:45 on domain   1:    0.04999 elapsed seconds
Timing for main: time 2016-06-19_12:13:00 on domain   1:    0.04107 elapsed seconds
Timing for main: time 2016-06-19_12:13:15 on domain   1:    0.04377 elapsed seconds
Timing for main: time 2016-06-19_12:13:30 on domain   1:    0.04247 elapsed seconds
Timing for main: time 2016-06-19_12:13:45 on domain   1:    0.04523 elapsed seconds
Timing for main: time 2016-06-19_12:14:00 on domain   1:    0.04204 elapsed seconds
Timing for main: time 2016-06-19_12:14:15 on domain   1:    0.04278 elapsed seconds
Timing for main: time 2016-06-19_12:14:30 on domain   1:    0.04338 elapsed seconds
Timing for main: time 2016-06-19_12:14:45 on domain   1:    0.04167 elapsed seconds
Timing for main: time 2016-06-19_12:15:00 on domain   1:    0.04169 elapsed seconds
Timing for main: time 2016-06-19_12:15:15 on domain   1:    0.04340 elapsed seconds
Timing for main: time 2016-06-19_12:15:30 on domain   1:    0.04304 elapsed seconds
Timing for main: time 2016-06-19_12:15:45 on domain   1:    0.05563 elapsed seconds
Timing for main: time 2016-06-19_12:16:00 on domain   1:    0.05320 elapsed seconds
Timing for main: time 2016-06-19_12:16:15 on domain   1:    0.04754 elapsed seconds
Timing for main: time 2016-06-19_12:16:30 on domain   1:    0.04956 elapsed seconds
Timing for main: time 2016-06-19_12:16:45 on domain   1:    0.05158 elapsed seconds
Timing for main: time 2016-06-19_12:17:00 on domain   1:    0.04767 elapsed seconds
Timing for main: time 2016-06-19_12:17:15 on domain   1:    0.05225 elapsed seconds
Timing for main: time 2016-06-19_12:17:30 on domain   1:    0.05149 elapsed seconds
Timing for main: time 2016-06-19_12:17:45 on domain   1:    0.05131 elapsed seconds
Timing for main: time 2016-06-19_12:18:00 on domain   1:    0.04985 elapsed seconds
Timing for main: time 2016-06-19_12:18:15 on domain   1:    0.05059 elapsed seconds
Timing for main: time 2016-06-19_12:18:30 on domain   1:    0.04609 elapsed seconds
Timing for main: time 2016-06-19_12:18:45 on domain   1:    0.04340 elapsed seconds
Timing for main: time 2016-06-19_12:19:00 on domain   1:    0.04389 elapsed seconds
Timing for main: time 2016-06-19_12:19:15 on domain   1:    0.04669 elapsed seconds
Timing for main: time 2016-06-19_12:19:30 on domain   1:    0.04648 elapsed seconds
Timing for main: time 2016-06-19_12:19:45 on domain   1:    0.04930 elapsed seconds
Timing for main: time 2016-06-19_12:20:00 on domain   1:    0.04832 elapsed seconds
Timing for Writing wrfout_d01_2016-06-19_12:20:00 for domain        1:    0.02091 elapsed seconds
Timing for Writing wrfstat_d01_2016-06-19_12:20:0 for domain        1:    0.01228 elapsed seconds
 solve_em: initializing statistics at time 2016-06-19_12:20:00 on domain   1
Timing for main: time 2016-06-19_12:20:15 on domain   1:    0.08644 elapsed seconds
Timing for main: time 2016-06-19_12:20:30 on domain   1:    0.05294 elapsed seconds
Timing for main: time 2016-06-19_12:20:45 on domain   1:    0.04947 elapsed seconds
Timing for main: time 2016-06-19_12:21:00 on domain   1:    0.04710 elapsed seconds
Timing for main: time 2016-06-19_12:21:15 on domain   1:    0.04811 elapsed seconds
Timing for main: time 2016-06-19_12:21:30 on domain   1:    0.04686 elapsed seconds
Timing for main: time 2016-06-19_12:21:45 on domain   1:    0.04837 elapsed seconds
Timing for main: time 2016-06-19_12:22:00 on domain   1:    0.04957 elapsed seconds
Timing for main: time 2016-06-19_12:22:15 on domain   1:    0.04747 elapsed seconds
Timing for main: time 2016-06-19_12:22:30 on domain   1:    0.05047 elapsed seconds
Timing for main: time 2016-06-19_12:22:45 on domain   1:    0.04698 elapsed seconds
Timing for main: time 2016-06-19_12:23:00 on domain   1:    0.05042 elapsed seconds
Timing for main: time 2016-06-19_12:23:15 on domain   1:    0.04723 elapsed seconds
Timing for main: time 2016-06-19_12:23:30 on domain   1:    0.04519 elapsed seconds
Timing for main: time 2016-06-19_12:23:45 on domain   1:    0.04407 elapsed seconds
Timing for main: time 2016-06-19_12:24:00 on domain   1:    0.04347 elapsed seconds
Timing for main: time 2016-06-19_12:24:15 on domain   1:    0.04442 elapsed seconds
Timing for main: time 2016-06-19_12:24:30 on domain   1:    0.04388 elapsed seconds
Timing for main: time 2016-06-19_12:24:45 on domain   1:    0.04503 elapsed seconds
Timing for main: time 2016-06-19_12:25:00 on domain   1:    0.04348 elapsed seconds
Timing for main: time 2016-06-19_12:25:15 on domain   1:    0.04268 elapsed seconds
Timing for main: time 2016-06-19_12:25:30 on domain   1:    0.04223 elapsed seconds
Timing for main: time 2016-06-19_12:25:45 on domain   1:    0.04188 elapsed seconds
Timing for main: time 2016-06-19_12:26:00 on domain   1:    0.04256 elapsed seconds
Timing for main: time 2016-06-19_12:26:15 on domain   1:    0.04472 elapsed seconds
Timing for main: time 2016-06-19_12:26:30 on domain   1:    0.04111 elapsed seconds
Timing for main: time 2016-06-19_12:26:45 on domain   1:    0.04142 elapsed seconds
Timing for main: time 2016-06-19_12:27:00 on domain   1:    0.04112 elapsed seconds
Timing for main: time 2016-06-19_12:27:15 on domain   1:    0.04116 elapsed seconds
Timing for main: time 2016-06-19_12:27:30 on domain   1:    0.04112 elapsed seconds
Timing for main: time 2016-06-19_12:27:45 on domain   1:    0.04154 elapsed seconds
Timing for main: time 2016-06-19_12:28:00 on domain   1:    0.04055 elapsed seconds
Timing for main: time 2016-06-19_12:28:15 on domain   1:    0.03996 elapsed seconds
Timing for main: time 2016-06-19_12:28:30 on domain   1:    0.03904 elapsed seconds
Timing for main: time 2016-06-19_12:28:45 on domain   1:    0.03962 elapsed seconds
Timing for main: time 2016-06-19_12:29:00 on domain   1:    0.03940 elapsed seconds
Timing for main: time 2016-06-19_12:29:15 on domain   1:    0.04200 elapsed seconds
Timing for main: time 2016-06-19_12:29:30 on domain   1:    0.03947 elapsed seconds
Timing for main: time 2016-06-19_12:29:45 on domain   1:    0.03918 elapsed seconds
Timing for main: time 2016-06-19_12:30:00 on domain   1:    0.03878 elapsed seconds
Timing for Writing wrfout_d01_2016-06-19_12:30:00 for domain        1:    0.02051 elapsed seconds
Timing for Writing wrfstat_d01_2016-06-19_12:30:0 for domain        1:    0.01177 elapsed seconds
 d01 2016-06-19_12:30:00  MMINLU error on input
 d01 2016-06-19_12:30:00 Input data processed for aux input   6 for domain   1
 d01 2016-06-19_12:30:00  MMINLU error on input
 d01 2016-06-19_12:30:00 Input data processed for aux input   7 for domain   1
 solve_em: initializing statistics at time 2016-06-19_12:30:00 on domain   1
Timing for main: time 2016-06-19_12:30:15 on domain   1:    0.07467 elapsed seconds
Timing for main: time 2016-06-19_12:30:30 on domain   1:    0.03883 elapsed seconds
Timing for main: time 2016-06-19_12:30:45 on domain   1:    0.03993 elapsed seconds
Timing for main: time 2016-06-19_12:31:00 on domain   1:    0.03914 elapsed seconds
Timing for main: time 2016-06-19_12:31:15 on domain   1:    0.03897 elapsed seconds
Timing for main: time 2016-06-19_12:31:30 on domain   1:    0.04250 elapsed seconds
Timing for main: time 2016-06-19_12:31:45 on domain   1:    0.04398 elapsed seconds
Timing for main: time 2016-06-19_12:32:00 on domain   1:    0.04484 elapsed seconds
Timing for main: time 2016-06-19_12:32:15 on domain   1:    0.04574 elapsed seconds
Timing for main: time 2016-06-19_12:32:30 on domain   1:    0.04406 elapsed seconds
Timing for main: time 2016-06-19_12:32:45 on domain   1:    0.04432 elapsed seconds
Timing for main: time 2016-06-19_12:33:00 on domain   1:    0.04257 elapsed seconds
Timing for main: time 2016-06-19_12:33:15 on domain   1:    0.04373 elapsed seconds
Timing for main: time 2016-06-19_12:33:30 on domain   1:    0.04530 elapsed seconds
Timing for main: time 2016-06-19_12:33:45 on domain   1:    0.04605 elapsed seconds
Timing for main: time 2016-06-19_12:34:00 on domain   1:    0.04052 elapsed seconds
Timing for main: time 2016-06-19_12:34:15 on domain   1:    0.04186 elapsed seconds
Timing for main: time 2016-06-19_12:34:30 on domain   1:    0.04108 elapsed seconds
Timing for main: time 2016-06-19_12:34:45 on domain   1:    0.04239 elapsed seconds
Timing for main: time 2016-06-19_12:35:00 on domain   1:    0.04233 elapsed seconds
Timing for main: time 2016-06-19_12:35:15 on domain   1:    0.04158 elapsed seconds
Timing for main: time 2016-06-19_12:35:30 on domain   1:    0.04155 elapsed seconds
Timing for main: time 2016-06-19_12:35:45 on domain   1:    0.04173 elapsed seconds
Timing for main: time 2016-06-19_12:36:00 on domain   1:    0.05983 elapsed seconds
Timing for main: time 2016-06-19_12:36:15 on domain   1:    0.04579 elapsed seconds
Timing for main: time 2016-06-19_12:36:30 on domain   1:    0.04143 elapsed seconds
Timing for main: time 2016-06-19_12:36:45 on domain   1:    0.04064 elapsed seconds
Timing for main: time 2016-06-19_12:37:00 on domain   1:    0.03998 elapsed seconds
Timing for main: time 2016-06-19_12:37:15 on domain   1:    0.04042 elapsed seconds
Timing for main: time 2016-06-19_12:37:30 on domain   1:    0.04088 elapsed seconds
Timing for main: time 2016-06-19_12:37:45 on domain   1:    0.04420 elapsed seconds
Timing for main: time 2016-06-19_12:38:00 on domain   1:    0.04393 elapsed seconds
Timing for main: time 2016-06-19_12:38:15 on domain   1:    0.04354 elapsed seconds
Timing for main: time 2016-06-19_12:38:30 on domain   1:    0.04386 elapsed seconds
Timing for main: time 2016-06-19_12:38:45 on domain   1:    0.04194 elapsed seconds
Timing for main: time 2016-06-19_12:39:00 on domain   1:    0.04163 elapsed seconds
Timing for main: time 2016-06-19_12:39:15 on domain   1:    0.04072 elapsed seconds
Timing for main: time 2016-06-19_12:39:30 on domain   1:    0.03908 elapsed seconds
Timing for main: time 2016-06-19_12:39:45 on domain   1:    0.03939 elapsed seconds
Timing for main: time 2016-06-19_12:40:00 on domain   1:    0.04142 elapsed seconds
Timing for Writing wrfout_d01_2016-06-19_12:40:00 for domain        1:    0.02199 elapsed seconds
Timing for Writing wrfstat_d01_2016-06-19_12:40:0 for domain        1:    0.01232 elapsed seconds
 solve_em: initializing statistics at time 2016-06-19_12:40:00 on domain   1
Timing for main: time 2016-06-19_12:40:15 on domain   1:    0.07877 elapsed seconds
Timing for main: time 2016-06-19_12:40:30 on domain   1:    0.04277 elapsed seconds
Timing for main: time 2016-06-19_12:40:45 on domain   1:    0.04735 elapsed seconds
Timing for main: time 2016-06-19_12:41:00 on domain   1:    0.04422 elapsed seconds
Timing for main: time 2016-06-19_12:41:15 on domain   1:    0.04439 elapsed seconds
Timing for main: time 2016-06-19_12:41:30 on domain   1:    0.04615 elapsed seconds
Timing for main: time 2016-06-19_12:41:45 on domain   1:    0.04799 elapsed seconds
Timing for main: time 2016-06-19_12:42:00 on domain   1:    0.04584 elapsed seconds
Timing for main: time 2016-06-19_12:42:15 on domain   1:    0.05115 elapsed seconds
Timing for main: time 2016-06-19_12:42:30 on domain   1:    0.04256 elapsed seconds
Timing for main: time 2016-06-19_12:42:45 on domain   1:    0.04407 elapsed seconds
Timing for main: time 2016-06-19_12:43:00 on domain   1:    0.04577 elapsed seconds
Timing for main: time 2016-06-19_12:43:15 on domain   1:    0.04243 elapsed seconds
Timing for main: time 2016-06-19_12:43:30 on domain   1:    0.04164 elapsed seconds
Timing for main: time 2016-06-19_12:43:45 on domain   1:    0.04169 elapsed seconds
Timing for main: time 2016-06-19_12:44:00 on domain   1:    0.04314 elapsed seconds
Timing for main: time 2016-06-19_12:44:15 on domain   1:    0.04400 elapsed seconds
Timing for main: time 2016-06-19_12:44:30 on domain   1:    0.04434 elapsed seconds
Timing for main: time 2016-06-19_12:44:45 on domain   1:    0.04243 elapsed seconds
Timing for main: time 2016-06-19_12:45:00 on domain   1:    0.03959 elapsed seconds
Timing for main: time 2016-06-19_12:45:15 on domain   1:    0.04127 elapsed seconds
Timing for main: time 2016-06-19_12:45:30 on domain   1:    0.04181 elapsed seconds
Timing for main: time 2016-06-19_12:45:45 on domain   1:    0.04410 elapsed seconds
Timing for main: time 2016-06-19_12:46:00 on domain   1:    0.04385 elapsed seconds
Timing for main: time 2016-06-19_12:46:15 on domain   1:    0.04895 elapsed seconds
Timing for main: time 2016-06-19_12:46:30 on domain   1:    0.04720 elapsed seconds
Timing for main: time 2016-06-19_12:46:45 on domain   1:    0.04598 elapsed seconds
Timing for main: time 2016-06-19_12:47:00 on domain   1:    0.04342 elapsed seconds
Timing for main: time 2016-06-19_12:47:15 on domain   1:    0.04721 elapsed seconds
Timing for main: time 2016-06-19_12:47:30 on domain   1:    0.04631 elapsed seconds
Timing for main: time 2016-06-19_12:47:45 on domain   1:    0.04752 elapsed seconds
Timing for main: time 2016-06-19_12:48:00 on domain   1:    0.04685 elapsed seconds
Timing for main: time 2016-06-19_12:48:15 on domain   1:    0.04489 elapsed seconds
Timing for main: time 2016-06-19_12:48:30 on domain   1:    0.04434 elapsed seconds
Timing for main: time 2016-06-19_12:48:45 on domain   1:    0.04574 elapsed seconds
Timing for main: time 2016-06-19_12:49:00 on domain   1:    0.04526 elapsed seconds
Timing for main: time 2016-06-19_12:49:15 on domain   1:    0.04546 elapsed seconds
Timing for main: time 2016-06-19_12:49:30 on domain   1:    0.04357 elapsed seconds
Timing for main: time 2016-06-19_12:49:45 on domain   1:    0.04566 elapsed seconds
Timing for main: time 2016-06-19_12:50:00 on domain   1:    0.05069 elapsed seconds
Timing for Writing wrfout_d01_2016-06-19_12:50:00 for domain        1:    0.02353 elapsed seconds
Timing for Writing wrfstat_d01_2016-06-19_12:50:0 for domain        1:    0.01260 elapsed seconds
 solve_em: initializing statistics at time 2016-06-19_12:50:00 on domain   1
Timing for main: time 2016-06-19_12:50:15 on domain   1:    0.07858 elapsed seconds
Timing for main: time 2016-06-19_12:50:30 on domain   1:    0.04650 elapsed seconds
Timing for main: time 2016-06-19_12:50:45 on domain   1:    0.04619 elapsed seconds
Timing for main: time 2016-06-19_12:51:00 on domain   1:    0.04258 elapsed seconds
Timing for main: time 2016-06-19_12:51:15 on domain   1:    0.04161 elapsed seconds
Timing for main: time 2016-06-19_12:51:30 on domain   1:    0.04118 elapsed seconds
Timing for main: time 2016-06-19_12:51:45 on domain   1:    0.04157 elapsed seconds
Timing for main: time 2016-06-19_12:52:00 on domain   1:    0.04096 elapsed seconds
Timing for main: time 2016-06-19_12:52:15 on domain   1:    0.04212 elapsed seconds
Timing for main: time 2016-06-19_12:52:30 on domain   1:    0.04149 elapsed seconds
Timing for main: time 2016-06-19_12:52:45 on domain   1:    0.04227 elapsed seconds
Timing for main: time 2016-06-19_12:53:00 on domain   1:    0.04173 elapsed seconds
Timing for main: time 2016-06-19_12:53:15 on domain   1:    0.04236 elapsed seconds
Timing for main: time 2016-06-19_12:53:30 on domain   1:    0.04160 elapsed seconds
Timing for main: time 2016-06-19_12:53:45 on domain   1:    0.04194 elapsed seconds
Timing for main: time 2016-06-19_12:54:00 on domain   1:    0.04118 elapsed seconds
Timing for main: time 2016-06-19_12:54:15 on domain   1:    0.04227 elapsed seconds
Timing for main: time 2016-06-19_12:54:30 on domain   1:    0.04163 elapsed seconds
Timing for main: time 2016-06-19_12:54:45 on domain   1:    0.04211 elapsed seconds
Timing for main: time 2016-06-19_12:55:00 on domain   1:    0.04133 elapsed seconds
Timing for main: time 2016-06-19_12:55:15 on domain   1:    0.04190 elapsed seconds
Timing for main: time 2016-06-19_12:55:30 on domain   1:    0.04153 elapsed seconds
Timing for main: time 2016-06-19_12:55:45 on domain   1:    0.04216 elapsed seconds
Timing for main: time 2016-06-19_12:56:00 on domain   1:    0.04158 elapsed seconds
Timing for main: time 2016-06-19_12:56:15 on domain   1:    0.04172 elapsed seconds
Timing for main: time 2016-06-19_12:56:30 on domain   1:    0.04147 elapsed seconds
Timing for main: time 2016-06-19_12:56:45 on domain   1:    0.04169 elapsed seconds
Timing for main: time 2016-06-19_12:57:00 on domain   1:    0.04114 elapsed seconds
Timing for main: time 2016-06-19_12:57:15 on domain   1:    0.04223 elapsed seconds
Timing for main: time 2016-06-19_12:57:30 on domain   1:    0.04164 elapsed seconds
Timing for main: time 2016-06-19_12:57:45 on domain   1:    0.04209 elapsed seconds
Timing for main: time 2016-06-19_12:58:00 on domain   1:    0.03954 elapsed seconds
Timing for main: time 2016-06-19_12:58:15 on domain   1:    0.04170 elapsed seconds
Timing for main: time 2016-06-19_12:58:30 on domain   1:    0.04178 elapsed seconds
Timing for main: time 2016-06-19_12:58:45 on domain   1:    0.04207 elapsed seconds
Timing for main: time 2016-06-19_12:59:00 on domain   1:    0.04255 elapsed seconds
Timing for main: time 2016-06-19_12:59:15 on domain   1:    0.04255 elapsed seconds
Timing for main: time 2016-06-19_12:59:30 on domain   1:    0.04322 elapsed seconds
Timing for main: time 2016-06-19_12:59:45 on domain   1:    0.04671 elapsed seconds
Timing for main: time 2016-06-19_13:00:00 on domain   1:    0.04695 elapsed seconds
Timing for Writing wrfout_d01_2016-06-19_13:00:00 for domain        1:    0.02555 elapsed seconds
Timing for Writing wrfstat_d01_2016-06-19_13:00:0 for domain        1:    0.01439 elapsed seconds
 d01 2016-06-19_13:00:00  MMINLU error on input
 d01 2016-06-19_13:00:00 Input data processed for aux input   6 for domain   1
 d01 2016-06-19_13:00:00  MMINLU error on input
 d01 2016-06-19_13:00:00 Input data processed for aux input   7 for domain   1
 solve_em: initializing statistics at time 2016-06-19_13:00:00 on domain   1
Timing for main: time 2016-06-19_13:00:15 on domain   1:    0.09340 elapsed seconds
Timing for main: time 2016-06-19_13:00:30 on domain   1:    0.05071 elapsed seconds
Timing for main: time 2016-06-19_13:00:45 on domain   1:    0.05974 elapsed seconds
Timing for main: time 2016-06-19_13:01:00 on domain   1:    0.04355 elapsed seconds
Timing for main: time 2016-06-19_13:01:15 on domain   1:    0.04516 elapsed seconds
Timing for main: time 2016-06-19_13:01:30 on domain   1:    0.04872 elapsed seconds
Timing for main: time 2016-06-19_13:01:45 on domain   1:    0.05347 elapsed seconds
Timing for main: time 2016-06-19_13:02:00 on domain   1:    0.04832 elapsed seconds
Timing for main: time 2016-06-19_13:02:15 on domain   1:    0.04629 elapsed seconds
Timing for main: time 2016-06-19_13:02:30 on domain   1:    0.04494 elapsed seconds
Timing for main: time 2016-06-19_13:02:45 on domain   1:    0.05628 elapsed seconds
Timing for main: time 2016-06-19_13:03:00 on domain   1:    0.04609 elapsed seconds
Timing for main: time 2016-06-19_13:03:15 on domain   1:    0.05033 elapsed seconds
Timing for main: time 2016-06-19_13:03:30 on domain   1:    0.04959 elapsed seconds
Timing for main: time 2016-06-19_13:03:45 on domain   1:    0.05068 elapsed seconds
Timing for main: time 2016-06-19_13:04:00 on domain   1:    0.04132 elapsed seconds
Timing for main: time 2016-06-19_13:04:15 on domain   1:    0.04172 elapsed seconds
Timing for main: time 2016-06-19_13:04:30 on domain   1:    0.04620 elapsed seconds
Timing for main: time 2016-06-19_13:04:45 on domain   1:    0.04400 elapsed seconds
Timing for main: time 2016-06-19_13:05:00 on domain   1:    0.04122 elapsed seconds
Timing for main: time 2016-06-19_13:05:15 on domain   1:    0.04443 elapsed seconds
Timing for main: time 2016-06-19_13:05:30 on domain   1:    0.04830 elapsed seconds
Timing for main: time 2016-06-19_13:05:45 on domain   1:    0.04529 elapsed seconds
Timing for main: time 2016-06-19_13:06:00 on domain   1:    0.05744 elapsed seconds
Timing for main: time 2016-06-19_13:06:15 on domain   1:    0.04623 elapsed seconds
Timing for main: time 2016-06-19_13:06:30 on domain   1:    0.04193 elapsed seconds
Timing for main: time 2016-06-19_13:06:45 on domain   1:    0.04351 elapsed seconds
Timing for main: time 2016-06-19_13:07:00 on domain   1:    0.04237 elapsed seconds
Timing for main: time 2016-06-19_13:07:15 on domain   1:    0.04368 elapsed seconds
Timing for main: time 2016-06-19_13:07:30 on domain   1:    0.05034 elapsed seconds
Timing for main: time 2016-06-19_13:07:45 on domain   1:    0.05408 elapsed seconds
Timing for main: time 2016-06-19_13:08:00 on domain   1:    0.05206 elapsed seconds
Timing for main: time 2016-06-19_13:08:15 on domain   1:    0.05245 elapsed seconds
Timing for main: time 2016-06-19_13:08:30 on domain   1:    0.05068 elapsed seconds
Timing for main: time 2016-06-19_13:08:45 on domain   1:    0.05012 elapsed seconds
Timing for main: time 2016-06-19_13:09:00 on domain   1:    0.04309 elapsed seconds
Timing for main: time 2016-06-19_13:09:15 on domain   1:    0.04773 elapsed seconds
Timing for main: time 2016-06-19_13:09:30 on domain   1:    0.04366 elapsed seconds
Timing for main: time 2016-06-19_13:09:45 on domain   1:    0.04263 elapsed seconds
Timing for main: time 2016-06-19_13:10:00 on domain   1:    0.04350 elapsed seconds
Timing for Writing wrfout_d01_2016-06-19_13:10:00 for domain        1:    0.02467 elapsed seconds
Timing for Writing wrfstat_d01_2016-06-19_13:10:0 for domain        1:    0.01390 elapsed seconds
 solve_em: initializing statistics at time 2016-06-19_13:10:00 on domain   1
Timing for main: time 2016-06-19_13:10:15 on domain   1:    0.08622 elapsed seconds
Timing for main: time 2016-06-19_13:10:30 on domain   1:    0.04947 elapsed seconds
Timing for main: time 2016-06-19_13:10:45 on domain   1:    0.05859 elapsed seconds
Timing for main: time 2016-06-19_13:11:00 on domain   1:    0.05098 elapsed seconds
Timing for main: time 2016-06-19_13:11:15 on domain   1:    0.04797 elapsed seconds
Timing for main: time 2016-06-19_13:11:30 on domain   1:    0.04940 elapsed seconds
Timing for main: time 2016-06-19_13:11:45 on domain   1:    0.04591 elapsed seconds
Timing for main: time 2016-06-19_13:12:00 on domain   1:    0.04835 elapsed seconds
Timing for main: time 2016-06-19_13:12:15 on domain   1:    0.04586 elapsed seconds
Timing for main: time 2016-06-19_13:12:30 on domain   1:    0.04699 elapsed seconds
Timing for main: time 2016-06-19_13:12:45 on domain   1:    0.05173 elapsed seconds
Timing for main: time 2016-06-19_13:13:00 on domain   1:    0.04791 elapsed seconds
Timing for main: time 2016-06-19_13:13:15 on domain   1:    0.05057 elapsed seconds
Timing for main: time 2016-06-19_13:13:30 on domain   1:    0.04987 elapsed seconds
Timing for main: time 2016-06-19_13:13:45 on domain   1:    0.05225 elapsed seconds
Timing for main: time 2016-06-19_13:14:00 on domain   1:    0.04923 elapsed seconds
Timing for main: time 2016-06-19_13:14:15 on domain   1:    0.04230 elapsed seconds
Timing for main: time 2016-06-19_13:14:30 on domain   1:    0.04282 elapsed seconds
Timing for main: time 2016-06-19_13:14:45 on domain   1:    0.04268 elapsed seconds
Timing for main: time 2016-06-19_13:15:00 on domain   1:    0.04064 elapsed seconds
Timing for main: time 2016-06-19_13:15:15 on domain   1:    0.04050 elapsed seconds
Timing for main: time 2016-06-19_13:15:30 on domain   1:    0.04177 elapsed seconds
Timing for main: time 2016-06-19_13:15:45 on domain   1:    0.04041 elapsed seconds
Timing for main: time 2016-06-19_13:16:00 on domain   1:    0.04182 elapsed seconds
Timing for main: time 2016-06-19_13:16:15 on domain   1:    0.04183 elapsed seconds
Timing for main: time 2016-06-19_13:16:30 on domain   1:    0.03890 elapsed seconds
Timing for main: time 2016-06-19_13:16:45 on domain   1:    0.04035 elapsed seconds
Timing for main: time 2016-06-19_13:17:00 on domain   1:    0.03949 elapsed seconds
Timing for main: time 2016-06-19_13:17:15 on domain   1:    0.04160 elapsed seconds
Timing for main: time 2016-06-19_13:17:30 on domain   1:    0.04171 elapsed seconds
Timing for main: time 2016-06-19_13:17:45 on domain   1:    0.04238 elapsed seconds
Timing for main: time 2016-06-19_13:18:00 on domain   1:    0.04356 elapsed seconds
Timing for main: time 2016-06-19_13:18:15 on domain   1:    0.04172 elapsed seconds
Timing for main: time 2016-06-19_13:18:30 on domain   1:    0.04160 elapsed seconds
Timing for main: time 2016-06-19_13:18:45 on domain   1:    0.04366 elapsed seconds
Timing for main: time 2016-06-19_13:19:00 on domain   1:    0.04216 elapsed seconds
Timing for main: time 2016-06-19_13:19:15 on domain   1:    0.04078 elapsed seconds
Timing for main: time 2016-06-19_13:19:30 on domain   1:    0.04048 elapsed seconds
Timing for main: time 2016-06-19_13:19:45 on domain   1:    0.04168 elapsed seconds
Timing for main: time 2016-06-19_13:20:00 on domain   1:    0.04127 elapsed seconds
Timing for Writing wrfout_d01_2016-06-19_13:20:00 for domain        1:    0.02450 elapsed seconds
Timing for Writing wrfstat_d01_2016-06-19_13:20:0 for domain        1:    0.01253 elapsed seconds
 solve_em: initializing statistics at time 2016-06-19_13:20:00 on domain   1
Timing for main: time 2016-06-19_13:20:15 on domain   1:    0.07842 elapsed seconds
Timing for main: time 2016-06-19_13:20:30 on domain   1:    0.04006 elapsed seconds
Timing for main: time 2016-06-19_13:20:45 on domain   1:    0.04060 elapsed seconds
Timing for main: time 2016-06-19_13:21:00 on domain   1:    0.04014 elapsed seconds
Timing for main: time 2016-06-19_13:21:15 on domain   1:    0.04074 elapsed seconds
Timing for main: time 2016-06-19_13:21:30 on domain   1:    0.04100 elapsed seconds
Timing for main: time 2016-06-19_13:21:45 on domain   1:    0.04065 elapsed seconds
Timing for main: time 2016-06-19_13:22:00 on domain   1:    0.03988 elapsed seconds
Timing for main: time 2016-06-19_13:22:15 on domain   1:    0.04185 elapsed seconds
Timing for main: time 2016-06-19_13:22:30 on domain   1:    0.04154 elapsed seconds
Timing for main: time 2016-06-19_13:22:45 on domain   1:    0.04117 elapsed seconds
Timing for main: time 2016-06-19_13:23:00 on domain   1:    0.04203 elapsed seconds
Timing for main: time 2016-06-19_13:23:15 on domain   1:    0.04068 elapsed seconds
Timing for main: time 2016-06-19_13:23:30 on domain   1:    0.04010 elapsed seconds
Timing for main: time 2016-06-19_13:23:45 on domain   1:    0.04078 elapsed seconds
Timing for main: time 2016-06-19_13:24:00 on domain   1:    0.03988 elapsed seconds
Timing for main: time 2016-06-19_13:24:15 on domain   1:    0.04147 elapsed seconds
Timing for main: time 2016-06-19_13:24:30 on domain   1:    0.04055 elapsed seconds
Timing for main: time 2016-06-19_13:24:45 on domain   1:    0.04065 elapsed seconds
Timing for main: time 2016-06-19_13:25:00 on domain   1:    0.04007 elapsed seconds
Timing for main: time 2016-06-19_13:25:15 on domain   1:    0.04061 elapsed seconds
Timing for main: time 2016-06-19_13:25:30 on domain   1:    0.04014 elapsed seconds
Timing for main: time 2016-06-19_13:25:45 on domain   1:    0.04528 elapsed seconds
Timing for main: time 2016-06-19_13:26:00 on domain   1:    0.04503 elapsed seconds
Timing for main: time 2016-06-19_13:26:15 on domain   1:    0.04330 elapsed seconds
Timing for main: time 2016-06-19_13:26:30 on domain   1:    0.04036 elapsed seconds
Timing for main: time 2016-06-19_13:26:45 on domain   1:    0.04676 elapsed seconds
Timing for main: time 2016-06-19_13:27:00 on domain   1:    0.04545 elapsed seconds
Timing for main: time 2016-06-19_13:27:15 on domain   1:    0.04563 elapsed seconds
Timing for main: time 2016-06-19_13:27:30 on domain   1:    0.04189 elapsed seconds
Timing for main: time 2016-06-19_13:27:45 on domain   1:    0.04227 elapsed seconds
Timing for main: time 2016-06-19_13:28:00 on domain   1:    0.04158 elapsed seconds
Timing for main: time 2016-06-19_13:28:15 on domain   1:    0.04101 elapsed seconds
Timing for main: time 2016-06-19_13:28:30 on domain   1:    0.04010 elapsed seconds
Timing for main: time 2016-06-19_13:28:45 on domain   1:    0.04096 elapsed seconds
Timing for main: time 2016-06-19_13:29:00 on domain   1:    0.03984 elapsed seconds
Timing for main: time 2016-06-19_13:29:15 on domain   1:    0.03888 elapsed seconds
Timing for main: time 2016-06-19_13:29:30 on domain   1:    0.03802 elapsed seconds
Timing for main: time 2016-06-19_13:29:45 on domain   1:    0.03839 elapsed seconds
Timing for main: time 2016-06-19_13:30:00 on domain   1:    0.03808 elapsed seconds
Timing for Writing wrfout_d01_2016-06-19_13:30:00 for domain        1:    0.02451 elapsed seconds
Timing for Writing wrfstat_d01_2016-06-19_13:30:0 for domain        1:    0.01276 elapsed seconds
 d01 2016-06-19_13:30:00  MMINLU error on input
 d01 2016-06-19_13:30:00 Input data processed for aux input   6 for domain   1
 d01 2016-06-19_13:30:00  MMINLU error on input
 d01 2016-06-19_13:30:00 Input data processed for aux input   7 for domain   1
 solve_em: initializing statistics at time 2016-06-19_13:30:00 on domain   1
Timing for main: time 2016-06-19_13:30:15 on domain   1:    0.08110 elapsed seconds
Timing for main: time 2016-06-19_13:30:30 on domain   1:    0.03968 elapsed seconds
Timing for main: time 2016-06-19_13:30:45 on domain   1:    0.03825 elapsed seconds
Timing for main: time 2016-06-19_13:31:00 on domain   1:    0.03781 elapsed seconds
Timing for main: time 2016-06-19_13:31:15 on domain   1:    0.03900 elapsed seconds
Timing for main: time 2016-06-19_13:31:30 on domain   1:    0.03848 elapsed seconds
Timing for main: time 2016-06-19_13:31:45 on domain   1:    0.04018 elapsed seconds
Timing for main: time 2016-06-19_13:32:00 on domain   1:    0.04347 elapsed seconds
Timing for main: time 2016-06-19_13:32:15 on domain   1:    0.04185 elapsed seconds
Timing for main: time 2016-06-19_13:32:30 on domain   1:    0.04277 elapsed seconds
Timing for main: time 2016-06-19_13:32:45 on domain   1:    0.04377 elapsed seconds
Timing for main: time 2016-06-19_13:33:00 on domain   1:    0.04229 elapsed seconds
Timing for main: time 2016-06-19_13:33:15 on domain   1:    0.04067 elapsed seconds
Timing for main: time 2016-06-19_13:33:30 on domain   1:    0.04146 elapsed seconds
Timing for main: time 2016-06-19_13:33:45 on domain   1:    0.04136 elapsed seconds
Timing for main: time 2016-06-19_13:34:00 on domain   1:    0.04193 elapsed seconds
Timing for main: time 2016-06-19_13:34:15 on domain   1:    0.04615 elapsed seconds
Timing for main: time 2016-06-19_13:34:30 on domain   1:    0.04364 elapsed seconds
Timing for main: time 2016-06-19_13:34:45 on domain   1:    0.04799 elapsed seconds
Timing for main: time 2016-06-19_13:35:00 on domain   1:    0.04344 elapsed seconds
Timing for main: time 2016-06-19_13:35:15 on domain   1:    0.04505 elapsed seconds
Timing for main: time 2016-06-19_13:35:30 on domain   1:    0.04063 elapsed seconds
Timing for main: time 2016-06-19_13:35:45 on domain   1:    0.04270 elapsed seconds
Timing for main: time 2016-06-19_13:36:00 on domain   1:    0.04527 elapsed seconds
Timing for main: time 2016-06-19_13:36:15 on domain   1:    0.04050 elapsed seconds
Timing for main: time 2016-06-19_13:36:30 on domain   1:    0.04076 elapsed seconds
Timing for main: time 2016-06-19_13:36:45 on domain   1:    0.04068 elapsed seconds
Timing for main: time 2016-06-19_13:37:00 on domain   1:    0.03992 elapsed seconds
Timing for main: time 2016-06-19_13:37:15 on domain   1:    0.04603 elapsed seconds
Timing for main: time 2016-06-19_13:37:30 on domain   1:    0.04118 elapsed seconds
Timing for main: time 2016-06-19_13:37:45 on domain   1:    0.04008 elapsed seconds
Timing for main: time 2016-06-19_13:38:00 on domain   1:    0.03970 elapsed seconds
Timing for main: time 2016-06-19_13:38:15 on domain   1:    0.04049 elapsed seconds
Timing for main: time 2016-06-19_13:38:30 on domain   1:    0.04008 elapsed seconds
Timing for main: time 2016-06-19_13:38:45 on domain   1:    0.04293 elapsed seconds
Timing for main: time 2016-06-19_13:39:00 on domain   1:    0.04145 elapsed seconds
Timing for main: time 2016-06-19_13:39:15 on domain   1:    0.04726 elapsed seconds
Timing for main: time 2016-06-19_13:39:30 on domain   1:    0.04358 elapsed seconds
Timing for main: time 2016-06-19_13:39:45 on domain   1:    0.04711 elapsed seconds
Timing for main: time 2016-06-19_13:40:00 on domain   1:    0.04495 elapsed seconds
Timing for Writing wrfout_d01_2016-06-19_13:40:00 for domain        1:    0.02541 elapsed seconds
Timing for Writing wrfstat_d01_2016-06-19_13:40:0 for domain        1:    0.01422 elapsed seconds
 solve_em: initializing statistics at time 2016-06-19_13:40:00 on domain   1
Timing for main: time 2016-06-19_13:40:15 on domain   1:    0.08448 elapsed seconds
Timing for main: time 2016-06-19_13:40:30 on domain   1:    0.04170 elapsed seconds
Timing for main: time 2016-06-19_13:40:45 on domain   1:    0.04231 elapsed seconds
Timing for main: time 2016-06-19_13:41:00 on domain   1:    0.04027 elapsed seconds
Timing for main: time 2016-06-19_13:41:15 on domain   1:    0.04053 elapsed seconds
Timing for main: time 2016-06-19_13:41:30 on domain   1:    0.04144 elapsed seconds
Timing for main: time 2016-06-19_13:41:45 on domain   1:    0.04572 elapsed seconds
Timing for main: time 2016-06-19_13:42:00 on domain   1:    0.04373 elapsed seconds
Timing for main: time 2016-06-19_13:42:15 on domain   1:    0.04629 elapsed seconds
Timing for main: time 2016-06-19_13:42:30 on domain   1:    0.04494 elapsed seconds
Timing for main: time 2016-06-19_13:42:45 on domain   1:    0.04728 elapsed seconds
Timing for main: time 2016-06-19_13:43:00 on domain   1:    0.04214 elapsed seconds
Timing for main: time 2016-06-19_13:43:15 on domain   1:    0.04542 elapsed seconds
Timing for main: time 2016-06-19_13:43:30 on domain   1:    0.05222 elapsed seconds
Timing for main: time 2016-06-19_13:43:45 on domain   1:    0.04433 elapsed seconds
Timing for main: time 2016-06-19_13:44:00 on domain   1:    0.04315 elapsed seconds
Timing for main: time 2016-06-19_13:44:15 on domain   1:    0.04281 elapsed seconds
Timing for main: time 2016-06-19_13:44:30 on domain   1:    0.04374 elapsed seconds
Timing for main: time 2016-06-19_13:44:45 on domain   1:    0.04164 elapsed seconds
Timing for main: time 2016-06-19_13:45:00 on domain   1:    0.03861 elapsed seconds
Timing for main: time 2016-06-19_13:45:15 on domain   1:    0.03957 elapsed seconds
Timing for main: time 2016-06-19_13:45:30 on domain   1:    0.04019 elapsed seconds
Timing for main: time 2016-06-19_13:45:45 on domain   1:    0.03962 elapsed seconds
Timing for main: time 2016-06-19_13:46:00 on domain   1:    0.03817 elapsed seconds
Timing for main: time 2016-06-19_13:46:15 on domain   1:    0.03957 elapsed seconds
Timing for main: time 2016-06-19_13:46:30 on domain   1:    0.03835 elapsed seconds
Timing for main: time 2016-06-19_13:46:45 on domain   1:    0.04055 elapsed seconds
Timing for main: time 2016-06-19_13:47:00 on domain   1:    0.04015 elapsed seconds
Timing for main: time 2016-06-19_13:47:15 on domain   1:    0.03896 elapsed seconds
Timing for main: time 2016-06-19_13:47:30 on domain   1:    0.03826 elapsed seconds
Timing for main: time 2016-06-19_13:47:45 on domain   1:    0.03886 elapsed seconds
Timing for main: time 2016-06-19_13:48:00 on domain   1:    0.04033 elapsed seconds
Timing for main: time 2016-06-19_13:48:15 on domain   1:    0.04247 elapsed seconds
Timing for main: time 2016-06-19_13:48:30 on domain   1:    0.04172 elapsed seconds
Timing for main: time 2016-06-19_13:48:45 on domain   1:    0.04415 elapsed seconds
Timing for main: time 2016-06-19_13:49:00 on domain   1:    0.04203 elapsed seconds
Timing for main: time 2016-06-19_13:49:15 on domain   1:    0.04260 elapsed seconds
Timing for main: time 2016-06-19_13:49:30 on domain   1:    0.04062 elapsed seconds
Timing for main: time 2016-06-19_13:49:45 on domain   1:    0.04082 elapsed seconds
Timing for main: time 2016-06-19_13:50:00 on domain   1:    0.03959 elapsed seconds
Timing for Writing wrfout_d01_2016-06-19_13:50:00 for domain        1:    0.02403 elapsed seconds
Timing for Writing wrfstat_d01_2016-06-19_13:50:0 for domain        1:    0.01370 elapsed seconds
 solve_em: initializing statistics at time 2016-06-19_13:50:00 on domain   1
Timing for main: time 2016-06-19_13:50:15 on domain   1:    0.08016 elapsed seconds
Timing for main: time 2016-06-19_13:50:30 on domain   1:    0.03992 elapsed seconds
Timing for main: time 2016-06-19_13:50:45 on domain   1:    0.04231 elapsed seconds
Timing for main: time 2016-06-19_13:51:00 on domain   1:    0.04339 elapsed seconds
Timing for main: time 2016-06-19_13:51:15 on domain   1:    0.04754 elapsed seconds
Timing for main: time 2016-06-19_13:51:30 on domain   1:    0.04602 elapsed seconds
Timing for main: time 2016-06-19_13:51:45 on domain   1:    0.04579 elapsed seconds
Timing for main: time 2016-06-19_13:52:00 on domain   1:    0.04406 elapsed seconds
Timing for main: time 2016-06-19_13:52:15 on domain   1:    0.04685 elapsed seconds
Timing for main: time 2016-06-19_13:52:30 on domain   1:    0.05046 elapsed seconds
Timing for main: time 2016-06-19_13:52:45 on domain   1:    0.05147 elapsed seconds
Timing for main: time 2016-06-19_13:53:00 on domain   1:    0.05062 elapsed seconds
Timing for main: time 2016-06-19_13:53:15 on domain   1:    0.05103 elapsed seconds
Timing for main: time 2016-06-19_13:53:30 on domain   1:    0.05015 elapsed seconds
Timing for main: time 2016-06-19_13:53:45 on domain   1:    0.05173 elapsed seconds
Timing for main: time 2016-06-19_13:54:00 on domain   1:    0.04651 elapsed seconds
Timing for main: time 2016-06-19_13:54:15 on domain   1:    0.04595 elapsed seconds
Timing for main: time 2016-06-19_13:54:30 on domain   1:    0.04707 elapsed seconds
Timing for main: time 2016-06-19_13:54:45 on domain   1:    0.04441 elapsed seconds
Timing for main: time 2016-06-19_13:55:00 on domain   1:    0.04496 elapsed seconds
Timing for main: time 2016-06-19_13:55:15 on domain   1:    0.04346 elapsed seconds
Timing for main: time 2016-06-19_13:55:30 on domain   1:    0.04459 elapsed seconds
Timing for main: time 2016-06-19_13:55:45 on domain   1:    0.04782 elapsed seconds
Timing for main: time 2016-06-19_13:56:00 on domain   1:    0.04631 elapsed seconds
Timing for main: time 2016-06-19_13:56:15 on domain   1:    0.04702 elapsed seconds
Timing for main: time 2016-06-19_13:56:30 on domain   1:    0.04420 elapsed seconds
Timing for main: time 2016-06-19_13:56:45 on domain   1:    0.04378 elapsed seconds
Timing for main: time 2016-06-19_13:57:00 on domain   1:    0.04217 elapsed seconds
Timing for main: time 2016-06-19_13:57:15 on domain   1:    0.04366 elapsed seconds
Timing for main: time 2016-06-19_13:57:30 on domain   1:    0.04421 elapsed seconds
Timing for main: time 2016-06-19_13:57:45 on domain   1:    0.04618 elapsed seconds
Timing for main: time 2016-06-19_13:58:00 on domain   1:    0.04694 elapsed seconds
Timing for main: time 2016-06-19_13:58:15 on domain   1:    0.04953 elapsed seconds
Timing for main: time 2016-06-19_13:58:30 on domain   1:    0.04880 elapsed seconds
Timing for main: time 2016-06-19_13:58:45 on domain   1:    0.05144 elapsed seconds
Timing for main: time 2016-06-19_13:59:00 on domain   1:    0.04744 elapsed seconds
Timing for main: time 2016-06-19_13:59:15 on domain   1:    0.04699 elapsed seconds
Timing for main: time 2016-06-19_13:59:30 on domain   1:    0.04667 elapsed seconds
Timing for main: time 2016-06-19_13:59:45 on domain   1:    0.04090 elapsed seconds
Timing for main: time 2016-06-19_14:00:00 on domain   1:    0.04001 elapsed seconds
Timing for Writing wrfout_d01_2016-06-19_14:00:00 for domain        1:    0.02758 elapsed seconds
Timing for Writing wrfstat_d01_2016-06-19_14:00:0 for domain        1:    0.01553 elapsed seconds
 d01 2016-06-19_14:00:00  MMINLU error on input
 d01 2016-06-19_14:00:00 Input data processed for aux input   6 for domain   1
 d01 2016-06-19_14:00:00  MMINLU error on input
 d01 2016-06-19_14:00:00 Input data processed for aux input   7 for domain   1
Timing for Writing restart for domain        1:    1.83542 elapsed seconds
 solve_em: initializing statistics at time 2016-06-19_14:00:00 on domain   1
Timing for main: time 2016-06-19_14:00:15 on domain   1:    1.92312 elapsed seconds
Timing for main: time 2016-06-19_14:00:30 on domain   1:    0.03959 elapsed seconds
Timing for main: time 2016-06-19_14:00:45 on domain   1:    0.04006 elapsed seconds
Timing for main: time 2016-06-19_14:01:00 on domain   1:    0.04080 elapsed seconds
Timing for main: time 2016-06-19_14:01:15 on domain   1:    0.04322 elapsed seconds
Timing for main: time 2016-06-19_14:01:30 on domain   1:    0.04098 elapsed seconds
Timing for main: time 2016-06-19_14:01:45 on domain   1:    0.04170 elapsed seconds
Timing for main: time 2016-06-19_14:02:00 on domain   1:    0.04465 elapsed seconds
Timing for main: time 2016-06-19_14:02:15 on domain   1:    0.04025 elapsed seconds
Timing for main: time 2016-06-19_14:02:30 on domain   1:    0.03987 elapsed seconds
Timing for main: time 2016-06-19_14:02:45 on domain   1:    0.03887 elapsed seconds
Timing for main: time 2016-06-19_14:03:00 on domain   1:    0.03730 elapsed seconds
Timing for main: time 2016-06-19_14:03:15 on domain   1:    0.03751 elapsed seconds
Timing for main: time 2016-06-19_14:03:30 on domain   1:    0.03922 elapsed seconds
Timing for main: time 2016-06-19_14:03:45 on domain   1:    0.04232 elapsed seconds
Timing for main: time 2016-06-19_14:04:00 on domain   1:    0.04152 elapsed seconds
Timing for main: time 2016-06-19_14:04:15 on domain   1:    0.04204 elapsed seconds
Timing for main: time 2016-06-19_14:04:30 on domain   1:    0.04121 elapsed seconds
Timing for main: time 2016-06-19_14:04:45 on domain   1:    0.04484 elapsed seconds
Timing for main: time 2016-06-19_14:05:00 on domain   1:    0.04268 elapsed seconds
Timing for main: time 2016-06-19_14:05:15 on domain   1:    0.04354 elapsed seconds
Timing for main: time 2016-06-19_14:05:30 on domain   1:    0.04204 elapsed seconds
Timing for main: time 2016-06-19_14:05:45 on domain   1:    0.04322 elapsed seconds
Timing for main: time 2016-06-19_14:06:00 on domain   1:    0.04253 elapsed seconds
Timing for main: time 2016-06-19_14:06:15 on domain   1:    0.03960 elapsed seconds
Timing for main: time 2016-06-19_14:06:30 on domain   1:    0.04005 elapsed seconds
Timing for main: time 2016-06-19_14:06:45 on domain   1:    0.04107 elapsed seconds
Timing for main: time 2016-06-19_14:07:00 on domain   1:    0.03871 elapsed seconds
Timing for main: time 2016-06-19_14:07:15 on domain   1:    0.03834 elapsed seconds
Timing for main: time 2016-06-19_14:07:30 on domain   1:    0.03721 elapsed seconds
Timing for main: time 2016-06-19_14:07:45 on domain   1:    0.03961 elapsed seconds
Timing for main: time 2016-06-19_14:08:00 on domain   1:    0.03999 elapsed seconds
Timing for main: time 2016-06-19_14:08:15 on domain   1:    0.04741 elapsed seconds
Timing for main: time 2016-06-19_14:08:30 on domain   1:    0.04133 elapsed seconds
Timing for main: time 2016-06-19_14:08:45 on domain   1:    0.03861 elapsed seconds
Timing for main: time 2016-06-19_14:09:00 on domain   1:    0.03944 elapsed seconds
Timing for main: time 2016-06-19_14:09:15 on domain   1:    0.04370 elapsed seconds
Timing for main: time 2016-06-19_14:09:30 on domain   1:    0.04368 elapsed seconds
Timing for main: time 2016-06-19_14:09:45 on domain   1:    0.04619 elapsed seconds
Timing for main: time 2016-06-19_14:10:00 on domain   1:    0.04299 elapsed seconds
Timing for Writing wrfout_d01_2016-06-19_14:10:00 for domain        1:    0.02760 elapsed seconds
Timing for Writing wrfstat_d01_2016-06-19_14:10:0 for domain        1:    0.01597 elapsed seconds
 solve_em: initializing statistics at time 2016-06-19_14:10:00 on domain   1
Timing for main: time 2016-06-19_14:10:15 on domain   1:    0.08861 elapsed seconds
Timing for main: time 2016-06-19_14:10:30 on domain   1:    0.04097 elapsed seconds
Timing for main: time 2016-06-19_14:10:45 on domain   1:    0.04175 elapsed seconds
Timing for main: time 2016-06-19_14:11:00 on domain   1:    0.04029 elapsed seconds
Timing for main: time 2016-06-19_14:11:15 on domain   1:    0.04055 elapsed seconds
Timing for main: time 2016-06-19_14:11:30 on domain   1:    0.03972 elapsed seconds
Timing for main: time 2016-06-19_14:11:45 on domain   1:    0.03963 elapsed seconds
Timing for main: time 2016-06-19_14:12:00 on domain   1:    0.03927 elapsed seconds
Timing for main: time 2016-06-19_14:12:15 on domain   1:    0.03973 elapsed seconds
Timing for main: time 2016-06-19_14:12:30 on domain   1:    0.03896 elapsed seconds
Timing for main: time 2016-06-19_14:12:45 on domain   1:    0.04054 elapsed seconds
Timing for main: time 2016-06-19_14:13:00 on domain   1:    0.03983 elapsed seconds
Timing for main: time 2016-06-19_14:13:15 on domain   1:    0.03951 elapsed seconds
Timing for main: time 2016-06-19_14:13:30 on domain   1:    0.03934 elapsed seconds
Timing for main: time 2016-06-19_14:13:45 on domain   1:    0.03985 elapsed seconds
Timing for main: time 2016-06-19_14:14:00 on domain   1:    0.03886 elapsed seconds
Timing for main: time 2016-06-19_14:14:15 on domain   1:    0.04012 elapsed seconds
Timing for main: time 2016-06-19_14:14:30 on domain   1:    0.03957 elapsed seconds
Timing for main: time 2016-06-19_14:14:45 on domain   1:    0.03980 elapsed seconds
Timing for main: time 2016-06-19_14:15:00 on domain   1:    0.04063 elapsed seconds
Timing for main: time 2016-06-19_14:15:15 on domain   1:    0.04221 elapsed seconds
Timing for main: time 2016-06-19_14:15:30 on domain   1:    0.04185 elapsed seconds
Timing for main: time 2016-06-19_14:15:45 on domain   1:    0.04505 elapsed seconds
Timing for main: time 2016-06-19_14:16:00 on domain   1:    0.04292 elapsed seconds
Timing for main: time 2016-06-19_14:16:15 on domain   1:    0.04210 elapsed seconds
Timing for main: time 2016-06-19_14:16:30 on domain   1:    0.04224 elapsed seconds
Timing for main: time 2016-06-19_14:16:45 on domain   1:    0.04421 elapsed seconds
Timing for main: time 2016-06-19_14:17:00 on domain   1:    0.04352 elapsed seconds
Timing for main: time 2016-06-19_14:17:15 on domain   1:    0.04588 elapsed seconds
Timing for main: time 2016-06-19_14:17:30 on domain   1:    0.04348 elapsed seconds
Timing for main: time 2016-06-19_14:17:45 on domain   1:    0.04515 elapsed seconds
Timing for main: time 2016-06-19_14:18:00 on domain   1:    0.04140 elapsed seconds
Timing for main: time 2016-06-19_14:18:15 on domain   1:    0.04254 elapsed seconds
Timing for main: time 2016-06-19_14:18:30 on domain   1:    0.04266 elapsed seconds
Timing for main: time 2016-06-19_14:18:45 on domain   1:    0.04181 elapsed seconds
Timing for main: time 2016-06-19_14:19:00 on domain   1:    0.04228 elapsed seconds
Timing for main: time 2016-06-19_14:19:15 on domain   1:    0.04425 elapsed seconds
Timing for main: time 2016-06-19_14:19:30 on domain   1:    0.04294 elapsed seconds
Timing for main: time 2016-06-19_14:19:45 on domain   1:    0.04500 elapsed seconds
Timing for main: time 2016-06-19_14:20:00 on domain   1:    0.04366 elapsed seconds
Timing for Writing wrfout_d01_2016-06-19_14:20:00 for domain        1:    0.02694 elapsed seconds
Timing for Writing wrfstat_d01_2016-06-19_14:20:0 for domain        1:    0.01520 elapsed seconds
 solve_em: initializing statistics at time 2016-06-19_14:20:00 on domain   1
Timing for main: time 2016-06-19_14:20:15 on domain   1:    0.08592 elapsed seconds
Timing for main: time 2016-06-19_14:20:30 on domain   1:    0.04156 elapsed seconds
Timing for main: time 2016-06-19_14:20:45 on domain   1:    0.04424 elapsed seconds
Timing for main: time 2016-06-19_14:21:00 on domain   1:    0.04100 elapsed seconds
Timing for main: time 2016-06-19_14:21:15 on domain   1:    0.03994 elapsed seconds
Timing for main: time 2016-06-19_14:21:30 on domain   1:    0.03909 elapsed seconds
Timing for main: time 2016-06-19_14:21:45 on domain   1:    0.03945 elapsed seconds
Timing for main: time 2016-06-19_14:22:00 on domain   1:    0.03858 elapsed seconds
Timing for main: time 2016-06-19_14:22:15 on domain   1:    0.03985 elapsed seconds
Timing for main: time 2016-06-19_14:22:30 on domain   1:    0.04242 elapsed seconds
Timing for main: time 2016-06-19_14:22:45 on domain   1:    0.04152 elapsed seconds
Timing for main: time 2016-06-19_14:23:00 on domain   1:    0.03826 elapsed seconds
Timing for main: time 2016-06-19_14:23:15 on domain   1:    0.03965 elapsed seconds
Timing for main: time 2016-06-19_14:23:30 on domain   1:    0.04164 elapsed seconds
Timing for main: time 2016-06-19_14:23:45 on domain   1:    0.04304 elapsed seconds
Timing for main: time 2016-06-19_14:24:00 on domain   1:    0.03897 elapsed seconds
Timing for main: time 2016-06-19_14:24:15 on domain   1:    0.04679 elapsed seconds
Timing for main: time 2016-06-19_14:24:30 on domain   1:    0.05411 elapsed seconds
Timing for main: time 2016-06-19_14:24:45 on domain   1:    0.04298 elapsed seconds
Timing for main: time 2016-06-19_14:25:00 on domain   1:    0.04042 elapsed seconds
Timing for main: time 2016-06-19_14:25:15 on domain   1:    0.04223 elapsed seconds
Timing for main: time 2016-06-19_14:25:30 on domain   1:    0.04173 elapsed seconds
Timing for main: time 2016-06-19_14:25:45 on domain   1:    0.04120 elapsed seconds
Timing for main: time 2016-06-19_14:26:00 on domain   1:    0.04154 elapsed seconds
Timing for main: time 2016-06-19_14:26:15 on domain   1:    0.04347 elapsed seconds
Timing for main: time 2016-06-19_14:26:30 on domain   1:    0.04383 elapsed seconds
Timing for main: time 2016-06-19_14:26:45 on domain   1:    0.04067 elapsed seconds
Timing for main: time 2016-06-19_14:27:00 on domain   1:    0.03896 elapsed seconds
Timing for main: time 2016-06-19_14:27:15 on domain   1:    0.04039 elapsed seconds
Timing for main: time 2016-06-19_14:27:30 on domain   1:    0.03798 elapsed seconds
Timing for main: time 2016-06-19_14:27:45 on domain   1:    0.03889 elapsed seconds
Timing for main: time 2016-06-19_14:28:00 on domain   1:    0.03757 elapsed seconds
Timing for main: time 2016-06-19_14:28:15 on domain   1:    0.03969 elapsed seconds
Timing for main: time 2016-06-19_14:28:30 on domain   1:    0.03791 elapsed seconds
Timing for main: time 2016-06-19_14:28:45 on domain   1:    0.04308 elapsed seconds
Timing for main: time 2016-06-19_14:29:00 on domain   1:    0.03827 elapsed seconds
Timing for main: time 2016-06-19_14:29:15 on domain   1:    0.03846 elapsed seconds
Timing for main: time 2016-06-19_14:29:30 on domain   1:    0.03781 elapsed seconds
Timing for main: time 2016-06-19_14:29:45 on domain   1:    0.03849 elapsed seconds
Timing for main: time 2016-06-19_14:30:00 on domain   1:    0.03913 elapsed seconds
Timing for Writing wrfout_d01_2016-06-19_14:30:00 for domain        1:    0.02819 elapsed seconds
Timing for Writing wrfstat_d01_2016-06-19_14:30:0 for domain        1:    0.01541 elapsed seconds
 d01 2016-06-19_14:30:00  MMINLU error on input
 d01 2016-06-19_14:30:00 Input data processed for aux input   6 for domain   1
 d01 2016-06-19_14:30:00  MMINLU error on input
 d01 2016-06-19_14:30:00 Input data processed for aux input   7 for domain   1
 solve_em: initializing statistics at time 2016-06-19_14:30:00 on domain   1
Timing for main: time 2016-06-19_14:30:15 on domain   1:    0.08801 elapsed seconds
Timing for main: time 2016-06-19_14:30:30 on domain   1:    0.04003 elapsed seconds
Timing for main: time 2016-06-19_14:30:45 on domain   1:    0.04090 elapsed seconds
Timing for main: time 2016-06-19_14:31:00 on domain   1:    0.04177 elapsed seconds
Timing for main: time 2016-06-19_14:31:15 on domain   1:    0.04294 elapsed seconds
Timing for main: time 2016-06-19_14:31:30 on domain   1:    0.04122 elapsed seconds
Timing for main: time 2016-06-19_14:31:45 on domain   1:    0.04269 elapsed seconds
Timing for main: time 2016-06-19_14:32:00 on domain   1:    0.04374 elapsed seconds
Timing for main: time 2016-06-19_14:32:15 on domain   1:    0.04227 elapsed seconds
Timing for main: time 2016-06-19_14:32:30 on domain   1:    0.04225 elapsed seconds
Timing for main: time 2016-06-19_14:32:45 on domain   1:    0.03990 elapsed seconds
Timing for main: time 2016-06-19_14:33:00 on domain   1:    0.04446 elapsed seconds
Timing for main: time 2016-06-19_14:33:15 on domain   1:    0.04749 elapsed seconds
Timing for main: time 2016-06-19_14:33:30 on domain   1:    0.05583 elapsed seconds
Timing for main: time 2016-06-19_14:33:45 on domain   1:    0.04655 elapsed seconds
Timing for main: time 2016-06-19_14:34:00 on domain   1:    0.04464 elapsed seconds
Timing for main: time 2016-06-19_14:34:15 on domain   1:    0.04989 elapsed seconds
Timing for main: time 2016-06-19_14:34:30 on domain   1:    0.04763 elapsed seconds
Timing for main: time 2016-06-19_14:34:45 on domain   1:    0.05198 elapsed seconds
Timing for main: time 2016-06-19_14:35:00 on domain   1:    0.04523 elapsed seconds
Timing for main: time 2016-06-19_14:35:15 on domain   1:    0.04165 elapsed seconds
Timing for main: time 2016-06-19_14:35:30 on domain   1:    0.04482 elapsed seconds
Timing for main: time 2016-06-19_14:35:45 on domain   1:    0.05228 elapsed seconds
Timing for main: time 2016-06-19_14:36:00 on domain   1:    0.04674 elapsed seconds
Timing for main: time 2016-06-19_14:36:15 on domain   1:    0.04312 elapsed seconds
Timing for main: time 2016-06-19_14:36:30 on domain   1:    0.04129 elapsed seconds
Timing for main: time 2016-06-19_14:36:45 on domain   1:    0.05150 elapsed seconds
Timing for main: time 2016-06-19_14:37:00 on domain   1:    0.04749 elapsed seconds
Timing for main: time 2016-06-19_14:37:15 on domain   1:    0.04220 elapsed seconds
Timing for main: time 2016-06-19_14:37:30 on domain   1:    0.04696 elapsed seconds
Timing for main: time 2016-06-19_14:37:45 on domain   1:    0.04419 elapsed seconds
Timing for main: time 2016-06-19_14:38:00 on domain   1:    0.03961 elapsed seconds
Timing for main: time 2016-06-19_14:38:15 on domain   1:    0.03857 elapsed seconds
Timing for main: time 2016-06-19_14:38:30 on domain   1:    0.04119 elapsed seconds
Timing for main: time 2016-06-19_14:38:45 on domain   1:    0.04318 elapsed seconds
Timing for main: time 2016-06-19_14:39:00 on domain   1:    0.04105 elapsed seconds
Timing for main: time 2016-06-19_14:39:15 on domain   1:    0.05402 elapsed seconds
Timing for main: time 2016-06-19_14:39:30 on domain   1:    0.04445 elapsed seconds
Timing for main: time 2016-06-19_14:39:45 on domain   1:    0.04266 elapsed seconds
Timing for main: time 2016-06-19_14:40:00 on domain   1:    0.04448 elapsed seconds
Timing for Writing wrfout_d01_2016-06-19_14:40:00 for domain        1:    0.03047 elapsed seconds
Timing for Writing wrfstat_d01_2016-06-19_14:40:0 for domain        1:    0.01700 elapsed seconds
 solve_em: initializing statistics at time 2016-06-19_14:40:00 on domain   1
Timing for main: time 2016-06-19_14:40:15 on domain   1:    0.09015 elapsed seconds
Timing for main: time 2016-06-19_14:40:30 on domain   1:    0.04893 elapsed seconds
Timing for main: time 2016-06-19_14:40:45 on domain   1:    0.05248 elapsed seconds
Timing for main: time 2016-06-19_14:41:00 on domain   1:    0.04981 elapsed seconds
Timing for main: time 2016-06-19_14:41:15 on domain   1:    0.05036 elapsed seconds
Timing for main: time 2016-06-19_14:41:30 on domain   1:    0.05402 elapsed seconds
Timing for main: time 2016-06-19_14:41:45 on domain   1:    0.05435 elapsed seconds
Timing for main: time 2016-06-19_14:42:00 on domain   1:    0.04884 elapsed seconds
Timing for main: time 2016-06-19_14:42:15 on domain   1:    0.04672 elapsed seconds
Timing for main: time 2016-06-19_14:42:30 on domain   1:    0.04377 elapsed seconds
Timing for main: time 2016-06-19_14:42:45 on domain   1:    0.04195 elapsed seconds
Timing for main: time 2016-06-19_14:43:00 on domain   1:    0.04242 elapsed seconds
Timing for main: time 2016-06-19_14:43:15 on domain   1:    0.04316 elapsed seconds
Timing for main: time 2016-06-19_14:43:30 on domain   1:    0.04418 elapsed seconds
Timing for main: time 2016-06-19_14:43:45 on domain   1:    0.04615 elapsed seconds
Timing for main: time 2016-06-19_14:44:00 on domain   1:    0.04619 elapsed seconds
Timing for main: time 2016-06-19_14:44:15 on domain   1:    0.04731 elapsed seconds
Timing for main: time 2016-06-19_14:44:30 on domain   1:    0.04881 elapsed seconds
Timing for main: time 2016-06-19_14:44:45 on domain   1:    0.05105 elapsed seconds
Timing for main: time 2016-06-19_14:45:00 on domain   1:    0.04753 elapsed seconds
Timing for main: time 2016-06-19_14:45:15 on domain   1:    0.04640 elapsed seconds
Timing for main: time 2016-06-19_14:45:30 on domain   1:    0.04570 elapsed seconds
Timing for main: time 2016-06-19_14:45:45 on domain   1:    0.04631 elapsed seconds
Timing for main: time 2016-06-19_14:46:00 on domain   1:    0.04365 elapsed seconds
Timing for main: time 2016-06-19_14:46:15 on domain   1:    0.04791 elapsed seconds
Timing for main: time 2016-06-19_14:46:30 on domain   1:    0.04616 elapsed seconds
Timing for main: time 2016-06-19_14:46:45 on domain   1:    0.04716 elapsed seconds
Timing for main: time 2016-06-19_14:47:00 on domain   1:    0.04683 elapsed seconds
Timing for main: time 2016-06-19_14:47:15 on domain   1:    0.05023 elapsed seconds
Timing for main: time 2016-06-19_14:47:30 on domain   1:    0.04567 elapsed seconds
Timing for main: time 2016-06-19_14:47:45 on domain   1:    0.04403 elapsed seconds
Timing for main: time 2016-06-19_14:48:00 on domain   1:    0.04269 elapsed seconds
Timing for main: time 2016-06-19_14:48:15 on domain   1:    0.04285 elapsed seconds
Timing for main: time 2016-06-19_14:48:30 on domain   1:    0.04222 elapsed seconds
Timing for main: time 2016-06-19_14:48:45 on domain   1:    0.04267 elapsed seconds
Timing for main: time 2016-06-19_14:49:00 on domain   1:    0.04135 elapsed seconds
Timing for main: time 2016-06-19_14:49:15 on domain   1:    0.04274 elapsed seconds
Timing for main: time 2016-06-19_14:49:30 on domain   1:    0.04067 elapsed seconds
Timing for main: time 2016-06-19_14:49:45 on domain   1:    0.04032 elapsed seconds
Timing for main: time 2016-06-19_14:50:00 on domain   1:    0.03994 elapsed seconds
Timing for Writing wrfout_d01_2016-06-19_14:50:00 for domain        1:    0.02769 elapsed seconds
Timing for Writing wrfstat_d01_2016-06-19_14:50:0 for domain        1:    0.01449 elapsed seconds
 solve_em: initializing statistics at time 2016-06-19_14:50:00 on domain   1
Timing for main: time 2016-06-19_14:50:15 on domain   1:    0.08532 elapsed seconds
Timing for main: time 2016-06-19_14:50:30 on domain   1:    0.04024 elapsed seconds
Timing for main: time 2016-06-19_14:50:45 on domain   1:    0.03937 elapsed seconds
Timing for main: time 2016-06-19_14:51:00 on domain   1:    0.03903 elapsed seconds
Timing for main: time 2016-06-19_14:51:15 on domain   1:    0.03995 elapsed seconds
Timing for main: time 2016-06-19_14:51:30 on domain   1:    0.03876 elapsed seconds
Timing for main: time 2016-06-19_14:51:45 on domain   1:    0.03997 elapsed seconds
Timing for main: time 2016-06-19_14:52:00 on domain   1:    0.03960 elapsed seconds
Timing for main: time 2016-06-19_14:52:15 on domain   1:    0.03942 elapsed seconds
Timing for main: time 2016-06-19_14:52:30 on domain   1:    0.03854 elapsed seconds
Timing for main: time 2016-06-19_14:52:45 on domain   1:    0.03793 elapsed seconds
Timing for main: time 2016-06-19_14:53:00 on domain   1:    0.03713 elapsed seconds
Timing for main: time 2016-06-19_14:53:15 on domain   1:    0.03766 elapsed seconds
Timing for main: time 2016-06-19_14:53:30 on domain   1:    0.03820 elapsed seconds
Timing for main: time 2016-06-19_14:53:45 on domain   1:    0.03999 elapsed seconds
Timing for main: time 2016-06-19_14:54:00 on domain   1:    0.03780 elapsed seconds
Timing for main: time 2016-06-19_14:54:15 on domain   1:    0.03724 elapsed seconds
Timing for main: time 2016-06-19_14:54:30 on domain   1:    0.03654 elapsed seconds
Timing for main: time 2016-06-19_14:54:45 on domain   1:    0.03791 elapsed seconds
Timing for main: time 2016-06-19_14:55:00 on domain   1:    0.03696 elapsed seconds
Timing for main: time 2016-06-19_14:55:15 on domain   1:    0.03774 elapsed seconds
Timing for main: time 2016-06-19_14:55:30 on domain   1:    0.03782 elapsed seconds
Timing for main: time 2016-06-19_14:55:45 on domain   1:    0.03728 elapsed seconds
Timing for main: time 2016-06-19_14:56:00 on domain   1:    0.03663 elapsed seconds
Timing for main: time 2016-06-19_14:56:15 on domain   1:    0.04122 elapsed seconds
Timing for main: time 2016-06-19_14:56:30 on domain   1:    0.04157 elapsed seconds
Timing for main: time 2016-06-19_14:56:45 on domain   1:    0.04457 elapsed seconds
Timing for main: time 2016-06-19_14:57:00 on domain   1:    0.04218 elapsed seconds
Timing for main: time 2016-06-19_14:57:15 on domain   1:    0.03909 elapsed seconds
Timing for main: time 2016-06-19_14:57:30 on domain   1:    0.04150 elapsed seconds
Timing for main: time 2016-06-19_14:57:45 on domain   1:    0.04248 elapsed seconds
Timing for main: time 2016-06-19_14:58:00 on domain   1:    0.04023 elapsed seconds
Timing for main: time 2016-06-19_14:58:15 on domain   1:    0.04267 elapsed seconds
Timing for main: time 2016-06-19_14:58:30 on domain   1:    0.04299 elapsed seconds
Timing for main: time 2016-06-19_14:58:45 on domain   1:    0.04290 elapsed seconds
Timing for main: time 2016-06-19_14:59:00 on domain   1:    0.04027 elapsed seconds
Timing for main: time 2016-06-19_14:59:15 on domain   1:    0.03892 elapsed seconds
Timing for main: time 2016-06-19_14:59:30 on domain   1:    0.03860 elapsed seconds
Timing for main: time 2016-06-19_14:59:45 on domain   1:    0.04259 elapsed seconds
Timing for main: time 2016-06-19_15:00:00 on domain   1:    0.04000 elapsed seconds
Timing for Writing wrfout_d01_2016-06-19_15:00:00 for domain        1:    0.03011 elapsed seconds
Timing for Writing wrfstat_d01_2016-06-19_15:00:0 for domain        1:    0.01466 elapsed seconds
 d01 2016-06-19_15:00:00  MMINLU error on input
 d01 2016-06-19_15:00:00 Input data processed for aux input   6 for domain   1
 d01 2016-06-19_15:00:00  MMINLU error on input
 d01 2016-06-19_15:00:00 Input data processed for aux input   7 for domain   1
 solve_em: initializing statistics at time 2016-06-19_15:00:00 on domain   1
Timing for main: time 2016-06-19_15:00:15 on domain   1:    0.08649 elapsed seconds
Timing for main: time 2016-06-19_15:00:30 on domain   1:    0.04202 elapsed seconds
Timing for main: time 2016-06-19_15:00:45 on domain   1:    0.04793 elapsed seconds
Timing for main: time 2016-06-19_15:01:00 on domain   1:    0.04788 elapsed seconds
Timing for main: time 2016-06-19_15:01:15 on domain   1:    0.04133 elapsed seconds
Timing for main: time 2016-06-19_15:01:30 on domain   1:    0.03748 elapsed seconds
Timing for main: time 2016-06-19_15:01:45 on domain   1:    0.03933 elapsed seconds
Timing for main: time 2016-06-19_15:02:00 on domain   1:    0.03761 elapsed seconds
Timing for main: time 2016-06-19_15:02:15 on domain   1:    0.03831 elapsed seconds
Timing for main: time 2016-06-19_15:02:30 on domain   1:    0.04106 elapsed seconds
Timing for main: time 2016-06-19_15:02:45 on domain   1:    0.04226 elapsed seconds
Timing for main: time 2016-06-19_15:03:00 on domain   1:    0.04113 elapsed seconds
Timing for main: time 2016-06-19_15:03:15 on domain   1:    0.04076 elapsed seconds
Timing for main: time 2016-06-19_15:03:30 on domain   1:    0.03919 elapsed seconds
Timing for main: time 2016-06-19_15:03:45 on domain   1:    0.04052 elapsed seconds
Timing for main: time 2016-06-19_15:04:00 on domain   1:    0.04152 elapsed seconds
Timing for main: time 2016-06-19_15:04:15 on domain   1:    0.03960 elapsed seconds
Timing for main: time 2016-06-19_15:04:30 on domain   1:    0.03933 elapsed seconds
Timing for main: time 2016-06-19_15:04:45 on domain   1:    0.03822 elapsed seconds
Timing for main: time 2016-06-19_15:05:00 on domain   1:    0.03664 elapsed seconds
Timing for main: time 2016-06-19_15:05:15 on domain   1:    0.03725 elapsed seconds
Timing for main: time 2016-06-19_15:05:30 on domain   1:    0.03899 elapsed seconds
Timing for main: time 2016-06-19_15:05:45 on domain   1:    0.04111 elapsed seconds
Timing for main: time 2016-06-19_15:06:00 on domain   1:    0.04060 elapsed seconds
Timing for main: time 2016-06-19_15:06:15 on domain   1:    0.04186 elapsed seconds
Timing for main: time 2016-06-19_15:06:30 on domain   1:    0.04457 elapsed seconds
Timing for main: time 2016-06-19_15:06:45 on domain   1:    0.04656 elapsed seconds
Timing for main: time 2016-06-19_15:07:00 on domain   1:    0.04530 elapsed seconds
Timing for main: time 2016-06-19_15:07:15 on domain   1:    0.04897 elapsed seconds
Timing for main: time 2016-06-19_15:07:30 on domain   1:    0.04594 elapsed seconds
Timing for main: time 2016-06-19_15:07:45 on domain   1:    0.04691 elapsed seconds
Timing for main: time 2016-06-19_15:08:00 on domain   1:    0.04331 elapsed seconds
Timing for main: time 2016-06-19_15:08:15 on domain   1:    0.04654 elapsed seconds
Timing for main: time 2016-06-19_15:08:30 on domain   1:    0.04178 elapsed seconds
Timing for main: time 2016-06-19_15:08:45 on domain   1:    0.04298 elapsed seconds
Timing for main: time 2016-06-19_15:09:00 on domain   1:    0.04530 elapsed seconds
Timing for main: time 2016-06-19_15:09:15 on domain   1:    0.04065 elapsed seconds
Timing for main: time 2016-06-19_15:09:30 on domain   1:    0.03929 elapsed seconds
Timing for main: time 2016-06-19_15:09:45 on domain   1:    0.03818 elapsed seconds
Timing for main: time 2016-06-19_15:10:00 on domain   1:    0.04236 elapsed seconds
Timing for Writing wrfout_d01_2016-06-19_15:10:00 for domain        1:    0.03288 elapsed seconds
Timing for Writing wrfstat_d01_2016-06-19_15:10:0 for domain        1:    0.01668 elapsed seconds
 solve_em: initializing statistics at time 2016-06-19_15:10:00 on domain   1
Timing for main: time 2016-06-19_15:10:15 on domain   1:    0.09247 elapsed seconds
Timing for main: time 2016-06-19_15:10:30 on domain   1:    0.03959 elapsed seconds
Timing for main: time 2016-06-19_15:10:45 on domain   1:    0.04067 elapsed seconds
Timing for main: time 2016-06-19_15:11:00 on domain   1:    0.03855 elapsed seconds
Timing for main: time 2016-06-19_15:11:15 on domain   1:    0.04050 elapsed seconds
Timing for main: time 2016-06-19_15:11:30 on domain   1:    0.04189 elapsed seconds
Timing for main: time 2016-06-19_15:11:45 on domain   1:    0.04248 elapsed seconds
Timing for main: time 2016-06-19_15:12:00 on domain   1:    0.04488 elapsed seconds
Timing for main: time 2016-06-19_15:12:15 on domain   1:    0.04348 elapsed seconds
Timing for main: time 2016-06-19_15:12:30 on domain   1:    0.04531 elapsed seconds
Timing for main: time 2016-06-19_15:12:45 on domain   1:    0.04466 elapsed seconds
Timing for main: time 2016-06-19_15:13:00 on domain   1:    0.04470 elapsed seconds
Timing for main: time 2016-06-19_15:13:15 on domain   1:    0.04630 elapsed seconds
Timing for main: time 2016-06-19_15:13:30 on domain   1:    0.04342 elapsed seconds
Timing for main: time 2016-06-19_15:13:45 on domain   1:    0.04421 elapsed seconds
Timing for main: time 2016-06-19_15:14:00 on domain   1:    0.04378 elapsed seconds
Timing for main: time 2016-06-19_15:14:15 on domain   1:    0.04439 elapsed seconds
Timing for main: time 2016-06-19_15:14:30 on domain   1:    0.04367 elapsed seconds
Timing for main: time 2016-06-19_15:14:45 on domain   1:    0.04128 elapsed seconds
Timing for main: time 2016-06-19_15:15:00 on domain   1:    0.04291 elapsed seconds
Timing for main: time 2016-06-19_15:15:15 on domain   1:    0.04821 elapsed seconds
Timing for main: time 2016-06-19_15:15:30 on domain   1:    0.04544 elapsed seconds
Timing for main: time 2016-06-19_15:15:45 on domain   1:    0.04156 elapsed seconds
Timing for main: time 2016-06-19_15:16:00 on domain   1:    0.04221 elapsed seconds
Timing for main: time 2016-06-19_15:16:15 on domain   1:    0.04702 elapsed seconds
Timing for main: time 2016-06-19_15:16:30 on domain   1:    0.04055 elapsed seconds
Timing for main: time 2016-06-19_15:16:45 on domain   1:    0.03951 elapsed seconds
Timing for main: time 2016-06-19_15:17:00 on domain   1:    0.03930 elapsed seconds
Timing for main: time 2016-06-19_15:17:15 on domain   1:    0.03974 elapsed seconds
Timing for main: time 2016-06-19_15:17:30 on domain   1:    0.03906 elapsed seconds
Timing for main: time 2016-06-19_15:17:45 on domain   1:    0.04028 elapsed seconds
Timing for main: time 2016-06-19_15:18:00 on domain   1:    0.03924 elapsed seconds
Timing for main: time 2016-06-19_15:18:15 on domain   1:    0.04015 elapsed seconds
Timing for main: time 2016-06-19_15:18:30 on domain   1:    0.04001 elapsed seconds
Timing for main: time 2016-06-19_15:18:45 on domain   1:    0.04059 elapsed seconds
Timing for main: time 2016-06-19_15:19:00 on domain   1:    0.04005 elapsed seconds
Timing for main: time 2016-06-19_15:19:15 on domain   1:    0.03980 elapsed seconds
Timing for main: time 2016-06-19_15:19:30 on domain   1:    0.03910 elapsed seconds
Timing for main: time 2016-06-19_15:19:45 on domain   1:    0.04041 elapsed seconds
Timing for main: time 2016-06-19_15:20:00 on domain   1:    0.03992 elapsed seconds
Timing for Writing wrfout_d01_2016-06-19_15:20:00 for domain        1:    0.02482 elapsed seconds
Timing for Writing wrfstat_d01_2016-06-19_15:20:0 for domain        1:    0.01508 elapsed seconds
 solve_em: initializing statistics at time 2016-06-19_15:20:00 on domain   1
Timing for main: time 2016-06-19_15:20:15 on domain   1:    0.08044 elapsed seconds
Timing for main: time 2016-06-19_15:20:30 on domain   1:    0.03926 elapsed seconds
Timing for main: time 2016-06-19_15:20:45 on domain   1:    0.04063 elapsed seconds
Timing for main: time 2016-06-19_15:21:00 on domain   1:    0.03977 elapsed seconds
Timing for main: time 2016-06-19_15:21:15 on domain   1:    0.03970 elapsed seconds
Timing for main: time 2016-06-19_15:21:30 on domain   1:    0.03914 elapsed seconds
Timing for main: time 2016-06-19_15:21:45 on domain   1:    0.04048 elapsed seconds
Timing for main: time 2016-06-19_15:22:00 on domain   1:    0.03957 elapsed seconds
Timing for main: time 2016-06-19_15:22:15 on domain   1:    0.03961 elapsed seconds
Timing for main: time 2016-06-19_15:22:30 on domain   1:    0.03959 elapsed seconds
Timing for main: time 2016-06-19_15:22:45 on domain   1:    0.03976 elapsed seconds
Timing for main: time 2016-06-19_15:23:00 on domain   1:    0.03986 elapsed seconds
Timing for main: time 2016-06-19_15:23:15 on domain   1:    0.04031 elapsed seconds
Timing for main: time 2016-06-19_15:23:30 on domain   1:    0.04070 elapsed seconds
Timing for main: time 2016-06-19_15:23:45 on domain   1:    0.03902 elapsed seconds
Timing for main: time 2016-06-19_15:24:00 on domain   1:    0.03908 elapsed seconds
Timing for main: time 2016-06-19_15:24:15 on domain   1:    0.04068 elapsed seconds
Timing for main: time 2016-06-19_15:24:30 on domain   1:    0.03949 elapsed seconds
Timing for main: time 2016-06-19_15:24:45 on domain   1:    0.04131 elapsed seconds
Timing for main: time 2016-06-19_15:25:00 on domain   1:    0.04071 elapsed seconds
Timing for main: time 2016-06-19_15:25:15 on domain   1:    0.04182 elapsed seconds
Timing for main: time 2016-06-19_15:25:30 on domain   1:    0.04291 elapsed seconds
Timing for main: time 2016-06-19_15:25:45 on domain   1:    0.04654 elapsed seconds
Timing for main: time 2016-06-19_15:26:00 on domain   1:    0.04279 elapsed seconds
Timing for main: time 2016-06-19_15:26:15 on domain   1:    0.04961 elapsed seconds
Timing for main: time 2016-06-19_15:26:30 on domain   1:    0.04885 elapsed seconds
Timing for main: time 2016-06-19_15:26:45 on domain   1:    0.06118 elapsed seconds
Timing for main: time 2016-06-19_15:27:00 on domain   1:    0.04247 elapsed seconds
Timing for main: time 2016-06-19_15:27:15 on domain   1:    0.04250 elapsed seconds
Timing for main: time 2016-06-19_15:27:30 on domain   1:    0.04305 elapsed seconds
Timing for main: time 2016-06-19_15:27:45 on domain   1:    0.05019 elapsed seconds
Timing for main: time 2016-06-19_15:28:00 on domain   1:    0.04985 elapsed seconds
Timing for main: time 2016-06-19_15:28:15 on domain   1:    0.04709 elapsed seconds
Timing for main: time 2016-06-19_15:28:30 on domain   1:    0.04116 elapsed seconds
Timing for main: time 2016-06-19_15:28:45 on domain   1:    0.04902 elapsed seconds
Timing for main: time 2016-06-19_15:29:00 on domain   1:    0.04332 elapsed seconds
Timing for main: time 2016-06-19_15:29:15 on domain   1:    0.04574 elapsed seconds
Timing for main: time 2016-06-19_15:29:30 on domain   1:    0.04958 elapsed seconds
Timing for main: time 2016-06-19_15:29:45 on domain   1:    0.05148 elapsed seconds
Timing for main: time 2016-06-19_15:30:00 on domain   1:    0.04543 elapsed seconds
Timing for Writing wrfout_d01_2016-06-19_15:30:00 for domain        1:    0.02723 elapsed seconds
Timing for Writing wrfstat_d01_2016-06-19_15:30:0 for domain        1:    0.01575 elapsed seconds
 d01 2016-06-19_15:30:00  MMINLU error on input
 d01 2016-06-19_15:30:00 Input data processed for aux input   6 for domain   1
 d01 2016-06-19_15:30:00  MMINLU error on input
 d01 2016-06-19_15:30:00 Input data processed for aux input   7 for domain   1
 solve_em: initializing statistics at time 2016-06-19_15:30:00 on domain   1
Timing for main: time 2016-06-19_15:30:15 on domain   1:    0.08921 elapsed seconds
[...]
Timing for main: time 2016-06-20_02:06:30 on domain   1:    0.02134 elapsed seconds
Timing for main: time 2016-06-20_02:06:45 on domain   1:    0.02184 elapsed seconds
Timing for main: time 2016-06-20_02:07:00 on domain   1:    0.02163 elapsed seconds
Timing for main: time 2016-06-20_02:07:15 on domain   1:    0.02164 elapsed seconds
Timing for main: time 2016-06-20_02:07:30 on domain   1:    0.02119 elapsed seconds
Timing for main: time 2016-06-20_02:07:45 on domain   1:    0.02243 elapsed seconds
Timing for main: time 2016-06-20_02:08:00 on domain   1:    0.02262 elapsed seconds
Timing for main: time 2016-06-20_02:08:15 on domain   1:    0.02324 elapsed seconds
Timing for main: time 2016-06-20_02:08:30 on domain   1:    0.02239 elapsed seconds
Timing for main: time 2016-06-20_02:08:45 on domain   1:    0.02316 elapsed seconds
Timing for main: time 2016-06-20_02:09:00 on domain   1:    0.02018 elapsed seconds
Timing for main: time 2016-06-20_02:09:15 on domain   1:    0.02058 elapsed seconds
Timing for main: time 2016-06-20_02:09:30 on domain   1:    0.02094 elapsed seconds
Timing for main: time 2016-06-20_02:09:45 on domain   1:    0.02179 elapsed seconds
Timing for main: time 2016-06-20_02:10:00 on domain   1:    0.02250 elapsed seconds
Timing for Writing wrfout_d01_2016-06-20_02:10:00 for domain        1:    0.02916 elapsed seconds
Timing for Writing wrfstat_d01_2016-06-20_02:10:0 for domain        1:    0.01854 elapsed seconds
 solve_em: initializing statistics at time 2016-06-20_02:10:00 on domain   1
Timing for main: time 2016-06-20_02:10:15 on domain   1:    0.07350 elapsed seconds
Timing for main: time 2016-06-20_02:10:30 on domain   1:    0.02652 elapsed seconds
Timing for main: time 2016-06-20_02:10:45 on domain   1:    0.02679 elapsed seconds
Timing for main: time 2016-06-20_02:11:00 on domain   1:    0.02105 elapsed seconds
Timing for main: time 2016-06-20_02:11:15 on domain   1:    0.02288 elapsed seconds
Timing for main: time 2016-06-20_02:11:30 on domain   1:    0.02275 elapsed seconds
Timing for main: time 2016-06-20_02:11:45 on domain   1:    0.02643 elapsed seconds
Timing for main: time 2016-06-20_02:12:00 on domain   1:    0.02269 elapsed seconds
Timing for main: time 2016-06-20_02:12:15 on domain   1:    0.02521 elapsed seconds
Timing for main: time 2016-06-20_02:12:30 on domain   1:    0.02612 elapsed seconds
Timing for main: time 2016-06-20_02:12:45 on domain   1:    0.02800 elapsed seconds
Timing for main: time 2016-06-20_02:13:00 on domain   1:    0.02207 elapsed seconds
Timing for main: time 2016-06-20_02:13:15 on domain   1:    0.02416 elapsed seconds
Timing for main: time 2016-06-20_02:13:30 on domain   1:    0.02377 elapsed seconds
Timing for main: time 2016-06-20_02:13:45 on domain   1:    0.02489 elapsed seconds
Timing for main: time 2016-06-20_02:14:00 on domain   1:    0.02180 elapsed seconds
Timing for main: time 2016-06-20_02:14:15 on domain   1:    0.02335 elapsed seconds
Timing for main: time 2016-06-20_02:14:30 on domain   1:    0.02504 elapsed seconds
Timing for main: time 2016-06-20_02:14:45 on domain   1:    0.02489 elapsed seconds
Timing for main: time 2016-06-20_02:15:00 on domain   1:    0.02338 elapsed seconds
Timing for main: time 2016-06-20_02:15:15 on domain   1:    0.02430 elapsed seconds
Timing for main: time 2016-06-20_02:15:30 on domain   1:    0.02307 elapsed seconds
Timing for main: time 2016-06-20_02:15:45 on domain   1:    0.02615 elapsed seconds
Timing for main: time 2016-06-20_02:16:00 on domain   1:    0.02314 elapsed seconds
Timing for main: time 2016-06-20_02:16:15 on domain   1:    0.02689 elapsed seconds
Timing for main: time 2016-06-20_02:16:30 on domain   1:    0.02633 elapsed seconds
Timing for main: time 2016-06-20_02:16:45 on domain   1:    0.02461 elapsed seconds
Timing for main: time 2016-06-20_02:17:00 on domain   1:    0.02168 elapsed seconds
Timing for main: time 2016-06-20_02:17:15 on domain   1:    0.02410 elapsed seconds
Timing for main: time 2016-06-20_02:17:30 on domain   1:    0.02276 elapsed seconds
Timing for main: time 2016-06-20_02:17:45 on domain   1:    0.02408 elapsed seconds
Timing for main: time 2016-06-20_02:18:00 on domain   1:    0.02568 elapsed seconds
Timing for main: time 2016-06-20_02:18:15 on domain   1:    0.02165 elapsed seconds
Timing for main: time 2016-06-20_02:18:30 on domain   1:    0.02215 elapsed seconds
Timing for main: time 2016-06-20_02:18:45 on domain   1:    0.02114 elapsed seconds
Timing for main: time 2016-06-20_02:19:00 on domain   1:    0.02021 elapsed seconds
Timing for main: time 2016-06-20_02:19:15 on domain   1:    0.02108 elapsed seconds
Timing for main: time 2016-06-20_02:19:30 on domain   1:    0.02160 elapsed seconds
Timing for main: time 2016-06-20_02:19:45 on domain   1:    0.02490 elapsed seconds
Timing for main: time 2016-06-20_02:20:00 on domain   1:    0.02662 elapsed seconds
Timing for Writing wrfout_d01_2016-06-20_02:20:00 for domain        1:    0.03257 elapsed seconds
Timing for Writing wrfstat_d01_2016-06-20_02:20:0 for domain        1:    0.02513 elapsed seconds
 solve_em: initializing statistics at time 2016-06-20_02:20:00 on domain   1
Timing for main: time 2016-06-20_02:20:15 on domain   1:    0.08088 elapsed seconds
Timing for main: time 2016-06-20_02:20:30 on domain   1:    0.02172 elapsed seconds
Timing for main: time 2016-06-20_02:20:45 on domain   1:    0.02137 elapsed seconds
Timing for main: time 2016-06-20_02:21:00 on domain   1:    0.02435 elapsed seconds
Timing for main: time 2016-06-20_02:21:15 on domain   1:    0.02375 elapsed seconds
Timing for main: time 2016-06-20_02:21:30 on domain   1:    0.02190 elapsed seconds
Timing for main: time 2016-06-20_02:21:45 on domain   1:    0.02120 elapsed seconds
Timing for main: time 2016-06-20_02:22:00 on domain   1:    0.02051 elapsed seconds
Timing for main: time 2016-06-20_02:22:15 on domain   1:    0.02088 elapsed seconds
Timing for main: time 2016-06-20_02:22:30 on domain   1:    0.02161 elapsed seconds
Timing for main: time 2016-06-20_02:22:45 on domain   1:    0.02199 elapsed seconds
Timing for main: time 2016-06-20_02:23:00 on domain   1:    0.02307 elapsed seconds
Timing for main: time 2016-06-20_02:23:15 on domain   1:    0.02324 elapsed seconds
Timing for main: time 2016-06-20_02:23:30 on domain   1:    0.02151 elapsed seconds
Timing for main: time 2016-06-20_02:23:45 on domain   1:    0.02386 elapsed seconds
Timing for main: time 2016-06-20_02:24:00 on domain   1:    0.02209 elapsed seconds
Timing for main: time 2016-06-20_02:24:15 on domain   1:    0.02300 elapsed seconds
Timing for main: time 2016-06-20_02:24:30 on domain   1:    0.02300 elapsed seconds
Timing for main: time 2016-06-20_02:24:45 on domain   1:    0.02424 elapsed seconds
Timing for main: time 2016-06-20_02:25:00 on domain   1:    0.02183 elapsed seconds
Timing for main: time 2016-06-20_02:25:15 on domain   1:    0.02133 elapsed seconds
Timing for main: time 2016-06-20_02:25:30 on domain   1:    0.02067 elapsed seconds
Timing for main: time 2016-06-20_02:25:45 on domain   1:    0.02118 elapsed seconds
Timing for main: time 2016-06-20_02:26:00 on domain   1:    0.02023 elapsed seconds
Timing for main: time 2016-06-20_02:26:15 on domain   1:    0.02011 elapsed seconds
Timing for main: time 2016-06-20_02:26:30 on domain   1:    0.01952 elapsed seconds
Timing for main: time 2016-06-20_02:26:45 on domain   1:    0.02027 elapsed seconds
Timing for main: time 2016-06-20_02:27:00 on domain   1:    0.01967 elapsed seconds
Timing for main: time 2016-06-20_02:27:15 on domain   1:    0.02100 elapsed seconds
Timing for main: time 2016-06-20_02:27:30 on domain   1:    0.02390 elapsed seconds
Timing for main: time 2016-06-20_02:27:45 on domain   1:    0.02324 elapsed seconds
Timing for main: time 2016-06-20_02:28:00 on domain   1:    0.02317 elapsed seconds
Timing for main: time 2016-06-20_02:28:15 on domain   1:    0.02384 elapsed seconds
Timing for main: time 2016-06-20_02:28:30 on domain   1:    0.02195 elapsed seconds
Timing for main: time 2016-06-20_02:28:45 on domain   1:    0.02416 elapsed seconds
Timing for main: time 2016-06-20_02:29:00 on domain   1:    0.02108 elapsed seconds
Timing for main: time 2016-06-20_02:29:15 on domain   1:    0.02456 elapsed seconds
Timing for main: time 2016-06-20_02:29:30 on domain   1:    0.02345 elapsed seconds
Timing for main: time 2016-06-20_02:29:45 on domain   1:    0.02382 elapsed seconds
Timing for main: time 2016-06-20_02:30:00 on domain   1:    0.02319 elapsed seconds
Timing for Writing wrfout_d01_2016-06-20_02:30:00 for domain        1:    0.02765 elapsed seconds
Timing for Writing wrfstat_d01_2016-06-20_02:30:0 for domain        1:    0.01884 elapsed seconds
 d01 2016-06-20_02:30:00  MMINLU error on input
 d01 2016-06-20_02:30:00 Input data processed for aux input   6 for domain   1
 d01 2016-06-20_02:30:00  MMINLU error on input
 d01 2016-06-20_02:30:00 Input data processed for aux input   7 for domain   1
 solve_em: initializing statistics at time 2016-06-20_02:30:00 on domain   1
Timing for main: time 2016-06-20_02:30:15 on domain   1:    0.07380 elapsed seconds
Timing for main: time 2016-06-20_02:30:30 on domain   1:    0.02245 elapsed seconds
Timing for main: time 2016-06-20_02:30:45 on domain   1:    0.02412 elapsed seconds
Timing for main: time 2016-06-20_02:31:00 on domain   1:    0.02332 elapsed seconds
Timing for main: time 2016-06-20_02:31:15 on domain   1:    0.02332 elapsed seconds
Timing for main: time 2016-06-20_02:31:30 on domain   1:    0.02240 elapsed seconds
Timing for main: time 2016-06-20_02:31:45 on domain   1:    0.02090 elapsed seconds
Timing for main: time 2016-06-20_02:32:00 on domain   1:    0.02063 elapsed seconds
Timing for main: time 2016-06-20_02:32:15 on domain   1:    0.02225 elapsed seconds
Timing for main: time 2016-06-20_02:32:30 on domain   1:    0.02115 elapsed seconds
Timing for main: time 2016-06-20_02:32:45 on domain   1:    0.02099 elapsed seconds
Timing for main: time 2016-06-20_02:33:00 on domain   1:    0.02120 elapsed seconds
Timing for main: time 2016-06-20_02:33:15 on domain   1:    0.02154 elapsed seconds
Timing for main: time 2016-06-20_02:33:30 on domain   1:    0.02071 elapsed seconds
Timing for main: time 2016-06-20_02:33:45 on domain   1:    0.02093 elapsed seconds
Timing for main: time 2016-06-20_02:34:00 on domain   1:    0.01961 elapsed seconds
Timing for main: time 2016-06-20_02:34:15 on domain   1:    0.02188 elapsed seconds
Timing for main: time 2016-06-20_02:34:30 on domain   1:    0.02134 elapsed seconds
Timing for main: time 2016-06-20_02:34:45 on domain   1:    0.02400 elapsed seconds
Timing for main: time 2016-06-20_02:35:00 on domain   1:    0.02306 elapsed seconds
Timing for main: time 2016-06-20_02:35:15 on domain   1:    0.02988 elapsed seconds
Timing for main: time 2016-06-20_02:35:30 on domain   1:    0.02557 elapsed seconds
Timing for main: time 2016-06-20_02:35:45 on domain   1:    0.02436 elapsed seconds
Timing for main: time 2016-06-20_02:36:00 on domain   1:    0.02290 elapsed seconds
Timing for main: time 2016-06-20_02:36:15 on domain   1:    0.02321 elapsed seconds
Timing for main: time 2016-06-20_02:36:30 on domain   1:    0.02115 elapsed seconds
Timing for main: time 2016-06-20_02:36:45 on domain   1:    0.02152 elapsed seconds
Timing for main: time 2016-06-20_02:37:00 on domain   1:    0.02170 elapsed seconds
Timing for main: time 2016-06-20_02:37:15 on domain   1:    0.02315 elapsed seconds
Timing for main: time 2016-06-20_02:37:30 on domain   1:    0.02394 elapsed seconds
Timing for main: time 2016-06-20_02:37:45 on domain   1:    0.02886 elapsed seconds
Timing for main: time 2016-06-20_02:38:00 on domain   1:    0.02833 elapsed seconds
Timing for main: time 2016-06-20_02:38:15 on domain   1:    0.03015 elapsed seconds
Timing for main: time 2016-06-20_02:38:30 on domain   1:    0.03244 elapsed seconds
Timing for main: time 2016-06-20_02:38:45 on domain   1:    0.03320 elapsed seconds
Timing for main: time 2016-06-20_02:39:00 on domain   1:    0.02815 elapsed seconds
Timing for main: time 2016-06-20_02:39:15 on domain   1:    0.03257 elapsed seconds
Timing for main: time 2016-06-20_02:39:30 on domain   1:    0.03122 elapsed seconds
Timing for main: time 2016-06-20_02:39:45 on domain   1:    0.03197 elapsed seconds
Timing for main: time 2016-06-20_02:40:00 on domain   1:    0.03000 elapsed seconds
Timing for Writing wrfout_d01_2016-06-20_02:40:00 for domain        1:    0.03027 elapsed seconds
Timing for Writing wrfstat_d01_2016-06-20_02:40:0 for domain        1:    0.02080 elapsed seconds
 solve_em: initializing statistics at time 2016-06-20_02:40:00 on domain   1
Timing for main: time 2016-06-20_02:40:15 on domain   1:    0.07448 elapsed seconds
Timing for main: time 2016-06-20_02:40:30 on domain   1:    0.02128 elapsed seconds
Timing for main: time 2016-06-20_02:40:45 on domain   1:    0.02899 elapsed seconds
Timing for main: time 2016-06-20_02:41:00 on domain   1:    0.03001 elapsed seconds
Timing for main: time 2016-06-20_02:41:15 on domain   1:    0.02844 elapsed seconds
Timing for main: time 2016-06-20_02:41:30 on domain   1:    0.02526 elapsed seconds
Timing for main: time 2016-06-20_02:41:45 on domain   1:    0.02908 elapsed seconds
Timing for main: time 2016-06-20_02:42:00 on domain   1:    0.02324 elapsed seconds
Timing for main: time 2016-06-20_02:42:15 on domain   1:    0.02311 elapsed seconds
Timing for main: time 2016-06-20_02:42:30 on domain   1:    0.02538 elapsed seconds
Timing for main: time 2016-06-20_02:42:45 on domain   1:    0.02667 elapsed seconds
Timing for main: time 2016-06-20_02:43:00 on domain   1:    0.02638 elapsed seconds
Timing for main: time 2016-06-20_02:43:15 on domain   1:    0.02693 elapsed seconds
Timing for main: time 2016-06-20_02:43:30 on domain   1:    0.02371 elapsed seconds
Timing for main: time 2016-06-20_02:43:45 on domain   1:    0.02881 elapsed seconds
Timing for main: time 2016-06-20_02:44:00 on domain   1:    0.02724 elapsed seconds
Timing for main: time 2016-06-20_02:44:15 on domain   1:    0.02762 elapsed seconds
Timing for main: time 2016-06-20_02:44:30 on domain   1:    0.02655 elapsed seconds
Timing for main: time 2016-06-20_02:44:45 on domain   1:    0.02529 elapsed seconds
Timing for main: time 2016-06-20_02:45:00 on domain   1:    0.02359 elapsed seconds
Timing for main: time 2016-06-20_02:45:15 on domain   1:    0.02232 elapsed seconds
Timing for main: time 2016-06-20_02:45:30 on domain   1:    0.02185 elapsed seconds
Timing for main: time 2016-06-20_02:45:45 on domain   1:    0.02608 elapsed seconds
Timing for main: time 2016-06-20_02:46:00 on domain   1:    0.02543 elapsed seconds
Timing for main: time 2016-06-20_02:46:15 on domain   1:    0.02601 elapsed seconds
Timing for main: time 2016-06-20_02:46:30 on domain   1:    0.02388 elapsed seconds
Timing for main: time 2016-06-20_02:46:45 on domain   1:    0.02645 elapsed seconds
Timing for main: time 2016-06-20_02:47:00 on domain   1:    0.02669 elapsed seconds
Timing for main: time 2016-06-20_02:47:15 on domain   1:    0.02664 elapsed seconds
Timing for main: time 2016-06-20_02:47:30 on domain   1:    0.02768 elapsed seconds
Timing for main: time 2016-06-20_02:47:45 on domain   1:    0.02728 elapsed seconds
Timing for main: time 2016-06-20_02:48:00 on domain   1:    0.02733 elapsed seconds
Timing for main: time 2016-06-20_02:48:15 on domain   1:    0.03090 elapsed seconds
Timing for main: time 2016-06-20_02:48:30 on domain   1:    0.03087 elapsed seconds
Timing for main: time 2016-06-20_02:48:45 on domain   1:    0.02840 elapsed seconds
Timing for main: time 2016-06-20_02:49:00 on domain   1:    0.02671 elapsed seconds
Timing for main: time 2016-06-20_02:49:15 on domain   1:    0.02668 elapsed seconds
Timing for main: time 2016-06-20_02:49:30 on domain   1:    0.02437 elapsed seconds
Timing for main: time 2016-06-20_02:49:45 on domain   1:    0.02706 elapsed seconds
Timing for main: time 2016-06-20_02:50:00 on domain   1:    0.02553 elapsed seconds
Timing for Writing wrfout_d01_2016-06-20_02:50:00 for domain        1:    0.03159 elapsed seconds
Timing for Writing wrfstat_d01_2016-06-20_02:50:0 for domain        1:    0.02211 elapsed seconds
 solve_em: initializing statistics at time 2016-06-20_02:50:00 on domain   1
Timing for main: time 2016-06-20_02:50:15 on domain   1:    0.08175 elapsed seconds
Timing for main: time 2016-06-20_02:50:30 on domain   1:    0.02811 elapsed seconds
Timing for main: time 2016-06-20_02:50:45 on domain   1:    0.02834 elapsed seconds
Timing for main: time 2016-06-20_02:51:00 on domain   1:    0.02585 elapsed seconds
Timing for main: time 2016-06-20_02:51:15 on domain   1:    0.02820 elapsed seconds
Timing for main: time 2016-06-20_02:51:30 on domain   1:    0.02722 elapsed seconds
Timing for main: time 2016-06-20_02:51:45 on domain   1:    0.02734 elapsed seconds
Timing for main: time 2016-06-20_02:52:00 on domain   1:    0.02674 elapsed seconds
Timing for main: time 2016-06-20_02:52:15 on domain   1:    0.02556 elapsed seconds
Timing for main: time 2016-06-20_02:52:30 on domain   1:    0.02341 elapsed seconds
Timing for main: time 2016-06-20_02:52:45 on domain   1:    0.02305 elapsed seconds
Timing for main: time 2016-06-20_02:53:00 on domain   1:    0.02120 elapsed seconds
Timing for main: time 2016-06-20_02:53:15 on domain   1:    0.02436 elapsed seconds
Timing for main: time 2016-06-20_02:53:30 on domain   1:    0.02418 elapsed seconds
Timing for main: time 2016-06-20_02:53:45 on domain   1:    0.02613 elapsed seconds
Timing for main: time 2016-06-20_02:54:00 on domain   1:    0.02326 elapsed seconds
Timing for main: time 2016-06-20_02:54:15 on domain   1:    0.02562 elapsed seconds
Timing for main: time 2016-06-20_02:54:30 on domain   1:    0.02612 elapsed seconds
Timing for main: time 2016-06-20_02:54:45 on domain   1:    0.02698 elapsed seconds
Timing for main: time 2016-06-20_02:55:00 on domain   1:    0.02588 elapsed seconds
Timing for main: time 2016-06-20_02:55:15 on domain   1:    0.02849 elapsed seconds
Timing for main: time 2016-06-20_02:55:30 on domain   1:    0.02685 elapsed seconds
Timing for main: time 2016-06-20_02:55:45 on domain   1:    0.02804 elapsed seconds
Timing for main: time 2016-06-20_02:56:00 on domain   1:    0.03015 elapsed seconds
Timing for main: time 2016-06-20_02:56:15 on domain   1:    0.03118 elapsed seconds
Timing for main: time 2016-06-20_02:56:30 on domain   1:    0.02743 elapsed seconds
Timing for main: time 2016-06-20_02:56:45 on domain   1:    0.02751 elapsed seconds
Timing for main: time 2016-06-20_02:57:00 on domain   1:    0.02649 elapsed seconds
Timing for main: time 2016-06-20_02:57:15 on domain   1:    0.02505 elapsed seconds
Timing for main: time 2016-06-20_02:57:30 on domain   1:    0.02683 elapsed seconds
Timing for main: time 2016-06-20_02:57:45 on domain   1:    0.02648 elapsed seconds
Timing for main: time 2016-06-20_02:58:00 on domain   1:    0.02623 elapsed seconds
Timing for main: time 2016-06-20_02:58:15 on domain   1:    0.02650 elapsed seconds
Timing for main: time 2016-06-20_02:58:30 on domain   1:    0.02700 elapsed seconds
Timing for main: time 2016-06-20_02:58:45 on domain   1:    0.02865 elapsed seconds
Timing for main: time 2016-06-20_02:59:00 on domain   1:    0.02734 elapsed seconds
Timing for main: time 2016-06-20_02:59:15 on domain   1:    0.02598 elapsed seconds
Timing for main: time 2016-06-20_02:59:30 on domain   1:    0.02655 elapsed seconds
Timing for main: time 2016-06-20_02:59:45 on domain   1:    0.02743 elapsed seconds
Timing for main: time 2016-06-20_03:00:00 on domain   1:    0.02762 elapsed seconds
Timing for Writing wrfout_d01_2016-06-20_03:00:00 for domain        1:    0.03531 elapsed seconds
Timing for Writing wrfstat_d01_2016-06-20_03:00:0 for domain        1:    0.02387 elapsed seconds
 d01 2016-06-20_03:00:00 wrf: SUCCESS COMPLETE WRF
