taskid: 0 hostname: cm.faster.bnl.gov
  Ntasks in X            1 , ntasks in Y            1
 IDEAL V3.6 PREPROCESSOR
  *************************************
  Parent domain
  ids,ide,jds,jde            1          31           1          31
  ims,ime,jms,jme           -4          36          -4          36
  ips,ipe,jps,jpe            1          31           1          31
  *************************************
 DYNAMICS OPTION: Eulerian Mass Coordinate
    alloc_space_field: domain            1 ,             359040048  bytes allocated
  pi is    3.1415927    
  Coriolis e is    0.0000000       f is    0.0000000    
  xlat is    36.599998       xlong is   -97.500000    
  Initial albedo is   0.20000000    
  getting dry sounding for base state 
  input sounding surface parameters 
  surface pressure (mb)    969.90002    
  surface pot. temp (K)    296.85001    
  surface mixing ratio (g/kg)    14.527000    
     1  0.190E+02  0.297E+03  0.149E+02 -0.752E+00  0.535E+01
     2  0.317E+02  0.297E+03  0.149E+02 -0.780E+00  0.635E+01
     3  0.427E+02  0.298E+03  0.149E+02 -0.890E+00  0.725E+01
     4  0.546E+02  0.298E+03  0.150E+02 -0.999E+00  0.814E+01
     5  0.658E+02  0.298E+03  0.150E+02 -0.111E+01  0.903E+01
     6  0.760E+02  0.299E+03  0.150E+02 -0.103E+01  0.985E+01
     7  0.859E+02  0.299E+03  0.149E+02 -0.933E+00  0.107E+02
     8  0.951E+02  0.299E+03  0.149E+02 -0.994E+00  0.114E+02
     9  0.105E+03  0.299E+03  0.149E+02 -0.837E+00  0.120E+02
    10  0.116E+03  0.299E+03  0.149E+02 -0.440E+00  0.126E+02
    11  0.126E+03  0.300E+03  0.149E+02 -0.230E+00  0.132E+02
    12  0.135E+03  0.300E+03  0.149E+02  0.000E+00  0.137E+02
    13  0.146E+03  0.300E+03  0.150E+02  0.496E+00  0.142E+02
    14  0.154E+03  0.301E+03  0.151E+02  0.102E+01  0.146E+02
    15  0.163E+03  0.301E+03  0.150E+02  0.132E+01  0.150E+02
    16  0.173E+03  0.301E+03  0.150E+02  0.189E+01  0.154E+02
    17  0.184E+03  0.301E+03  0.150E+02  0.249E+01  0.157E+02
    18  0.195E+03  0.301E+03  0.149E+02  0.283E+01  0.161E+02
    19  0.205E+03  0.302E+03  0.148E+02  0.347E+01  0.163E+02
    20  0.215E+03  0.302E+03  0.148E+02  0.385E+01  0.167E+02
    21  0.225E+03  0.302E+03  0.148E+02  0.423E+01  0.170E+02
    22  0.236E+03  0.302E+03  0.147E+02  0.461E+01  0.172E+02
    23  0.246E+03  0.302E+03  0.146E+02  0.499E+01  0.174E+02
    24  0.257E+03  0.302E+03  0.146E+02  0.535E+01  0.175E+02
    25  0.267E+03  0.302E+03  0.145E+02  0.572E+01  0.176E+02
    26  0.278E+03  0.302E+03  0.144E+02  0.578E+01  0.178E+02
    27  0.290E+03  0.303E+03  0.143E+02  0.612E+01  0.178E+02
    28  0.302E+03  0.303E+03  0.143E+02  0.612E+01  0.178E+02
    29  0.310E+03  0.303E+03  0.142E+02  0.646E+01  0.178E+02
    30  0.318E+03  0.303E+03  0.141E+02  0.646E+01  0.178E+02
    31  0.328E+03  0.304E+03  0.140E+02  0.643E+01  0.177E+02
    32  0.339E+03  0.304E+03  0.139E+02  0.643E+01  0.177E+02
    33  0.350E+03  0.304E+03  0.138E+02  0.609E+01  0.177E+02
    34  0.362E+03  0.304E+03  0.137E+02  0.606E+01  0.176E+02
    35  0.372E+03  0.304E+03  0.136E+02  0.602E+01  0.175E+02
    36  0.382E+03  0.304E+03  0.136E+02  0.599E+01  0.174E+02
    37  0.393E+03  0.304E+03  0.136E+02  0.593E+01  0.172E+02
    38  0.403E+03  0.304E+03  0.136E+02  0.589E+01  0.171E+02
    39  0.411E+03  0.304E+03  0.136E+02  0.586E+01  0.170E+02
    40  0.418E+03  0.304E+03  0.136E+02  0.583E+01  0.169E+02
    41  0.427E+03  0.304E+03  0.135E+02  0.580E+01  0.168E+02
    42  0.436E+03  0.304E+03  0.134E+02  0.576E+01  0.167E+02
    43  0.447E+03  0.304E+03  0.134E+02  0.570E+01  0.165E+02
    44  0.457E+03  0.304E+03  0.133E+02  0.570E+01  0.165E+02
    45  0.467E+03  0.304E+03  0.133E+02  0.566E+01  0.165E+02
    46  0.476E+03  0.304E+03  0.132E+02  0.592E+01  0.163E+02
    47  0.485E+03  0.304E+03  0.132E+02  0.592E+01  0.163E+02
    48  0.494E+03  0.304E+03  0.132E+02  0.592E+01  0.163E+02
    49  0.503E+03  0.304E+03  0.132E+02  0.588E+01  0.162E+02
    50  0.513E+03  0.304E+03  0.131E+02  0.588E+01  0.162E+02
    51  0.524E+03  0.305E+03  0.131E+02  0.616E+01  0.161E+02
    52  0.536E+03  0.305E+03  0.131E+02  0.616E+01  0.161E+02
    53  0.548E+03  0.305E+03  0.131E+02  0.616E+01  0.161E+02
    54  0.559E+03  0.305E+03  0.131E+02  0.613E+01  0.160E+02
    55  0.569E+03  0.305E+03  0.131E+02  0.613E+01  0.160E+02
    56  0.580E+03  0.305E+03  0.131E+02  0.637E+01  0.158E+02
    57  0.591E+03  0.305E+03  0.131E+02  0.633E+01  0.157E+02
    58  0.601E+03  0.305E+03  0.130E+02  0.626E+01  0.155E+02
    59  0.611E+03  0.305E+03  0.130E+02  0.649E+01  0.153E+02
    60  0.621E+03  0.305E+03  0.131E+02  0.641E+01  0.151E+02
    61  0.631E+03  0.305E+03  0.131E+02  0.659E+01  0.148E+02
    62  0.642E+03  0.305E+03  0.132E+02  0.651E+01  0.146E+02
    63  0.651E+03  0.305E+03  0.131E+02  0.639E+01  0.143E+02
    64  0.660E+03  0.305E+03  0.131E+02  0.655E+01  0.140E+02
    65  0.671E+03  0.305E+03  0.131E+02  0.642E+01  0.138E+02
    66  0.681E+03  0.305E+03  0.130E+02  0.634E+01  0.136E+02
    67  0.689E+03  0.305E+03  0.130E+02  0.621E+01  0.133E+02
    68  0.698E+03  0.305E+03  0.129E+02  0.613E+01  0.131E+02
    69  0.707E+03  0.305E+03  0.128E+02  0.604E+01  0.130E+02
    70  0.718E+03  0.305E+03  0.128E+02  0.596E+01  0.128E+02
    71  0.728E+03  0.305E+03  0.128E+02  0.587E+01  0.126E+02
    72  0.739E+03  0.305E+03  0.129E+02  0.583E+01  0.125E+02
    73  0.749E+03  0.305E+03  0.128E+02  0.579E+01  0.124E+02
    74  0.757E+03  0.305E+03  0.127E+02  0.570E+01  0.122E+02
    75  0.767E+03  0.305E+03  0.127E+02  0.566E+01  0.121E+02
    76  0.776E+03  0.305E+03  0.127E+02  0.562E+01  0.121E+02
    77  0.785E+03  0.305E+03  0.128E+02  0.579E+01  0.119E+02
    78  0.796E+03  0.305E+03  0.129E+02  0.574E+01  0.118E+02
    79  0.806E+03  0.305E+03  0.129E+02  0.574E+01  0.118E+02
    80  0.817E+03  0.305E+03  0.129E+02  0.570E+01  0.117E+02
    81  0.828E+03  0.305E+03  0.128E+02  0.566E+01  0.116E+02
    82  0.839E+03  0.306E+03  0.128E+02  0.561E+01  0.115E+02
    83  0.850E+03  0.306E+03  0.128E+02  0.561E+01  0.115E+02
    84  0.860E+03  0.306E+03  0.128E+02  0.557E+01  0.114E+02
    85  0.870E+03  0.306E+03  0.129E+02  0.577E+01  0.113E+02
    86  0.883E+03  0.306E+03  0.129E+02  0.572E+01  0.112E+02
    87  0.895E+03  0.306E+03  0.129E+02  0.572E+01  0.112E+02
    88  0.907E+03  0.306E+03  0.129E+02  0.572E+01  0.112E+02
    89  0.916E+03  0.306E+03  0.129E+02  0.568E+01  0.111E+02
    90  0.926E+03  0.306E+03  0.130E+02  0.568E+01  0.111E+02
    91  0.935E+03  0.306E+03  0.130E+02  0.563E+01  0.110E+02
    92  0.945E+03  0.306E+03  0.129E+02  0.563E+01  0.110E+02
    93  0.956E+03  0.306E+03  0.129E+02  0.558E+01  0.110E+02
    94  0.967E+03  0.306E+03  0.128E+02  0.554E+01  0.109E+02
    95  0.980E+03  0.306E+03  0.128E+02  0.549E+01  0.108E+02
    96  0.992E+03  0.306E+03  0.128E+02  0.540E+01  0.106E+02
    97  0.100E+04  0.306E+03  0.129E+02  0.531E+01  0.104E+02
    98  0.101E+04  0.306E+03  0.130E+02  0.522E+01  0.102E+02
    99  0.102E+04  0.306E+03  0.130E+02  0.513E+01  0.101E+02
   100  0.103E+04  0.306E+03  0.129E+02  0.504E+01  0.989E+01
   101  0.104E+04  0.306E+03  0.128E+02  0.495E+01  0.971E+01
   102  0.105E+04  0.306E+03  0.127E+02  0.486E+01  0.953E+01
   103  0.107E+04  0.306E+03  0.125E+02  0.472E+01  0.927E+01
   104  0.108E+04  0.306E+03  0.125E+02  0.479E+01  0.901E+01
   105  0.109E+04  0.306E+03  0.126E+02  0.474E+01  0.892E+01
   106  0.110E+04  0.306E+03  0.126E+02  0.465E+01  0.874E+01
   107  0.111E+04  0.306E+03  0.126E+02  0.475E+01  0.857E+01
   108  0.112E+04  0.306E+03  0.127E+02  0.470E+01  0.848E+01
   109  0.113E+04  0.306E+03  0.127E+02  0.465E+01  0.840E+01
   110  0.114E+04  0.306E+03  0.127E+02  0.475E+01  0.823E+01
   111  0.116E+04  0.306E+03  0.127E+02  0.470E+01  0.814E+01
   112  0.117E+04  0.306E+03  0.126E+02  0.484E+01  0.806E+01
   113  0.118E+04  0.307E+03  0.124E+02  0.479E+01  0.797E+01
   114  0.119E+04  0.307E+03  0.122E+02  0.474E+01  0.789E+01
   115  0.120E+04  0.307E+03  0.120E+02  0.488E+01  0.780E+01
   116  0.121E+04  0.307E+03  0.118E+02  0.482E+01  0.772E+01
   117  0.122E+04  0.307E+03  0.117E+02  0.477E+01  0.763E+01
   118  0.123E+04  0.307E+03  0.116E+02  0.472E+01  0.755E+01
   119  0.124E+04  0.307E+03  0.116E+02  0.466E+01  0.746E+01
   120  0.125E+04  0.307E+03  0.116E+02  0.448E+01  0.746E+01
   121  0.126E+04  0.307E+03  0.116E+02  0.443E+01  0.737E+01
   122  0.127E+04  0.307E+03  0.115E+02  0.438E+01  0.729E+01
   123  0.128E+04  0.307E+03  0.115E+02  0.433E+01  0.720E+01
   124  0.130E+04  0.307E+03  0.115E+02  0.420E+01  0.728E+01
   125  0.131E+04  0.307E+03  0.115E+02  0.415E+01  0.719E+01
   126  0.132E+04  0.307E+03  0.116E+02  0.410E+01  0.710E+01
   127  0.133E+04  0.307E+03  0.117E+02  0.410E+01  0.710E+01
   128  0.134E+04  0.307E+03  0.117E+02  0.405E+01  0.701E+01
   129  0.135E+04  0.307E+03  0.118E+02  0.400E+01  0.693E+01
   130  0.136E+04  0.307E+03  0.117E+02  0.395E+01  0.684E+01
   131  0.137E+04  0.307E+03  0.116E+02  0.402E+01  0.669E+01
   132  0.138E+04  0.307E+03  0.114E+02  0.391E+01  0.651E+01
   133  0.139E+04  0.307E+03  0.113E+02  0.392E+01  0.628E+01
   134  0.140E+04  0.307E+03  0.112E+02  0.382E+01  0.611E+01
   135  0.141E+04  0.307E+03  0.110E+02  0.381E+01  0.587E+01
   136  0.142E+04  0.307E+03  0.109E+02  0.380E+01  0.564E+01
   137  0.143E+04  0.307E+03  0.109E+02  0.382E+01  0.526E+01
   138  0.144E+04  0.307E+03  0.109E+02  0.379E+01  0.503E+01
   139  0.145E+04  0.307E+03  0.109E+02  0.384E+01  0.474E+01
   140  0.146E+04  0.307E+03  0.108E+02  0.379E+01  0.452E+01
   141  0.147E+04  0.307E+03  0.106E+02  0.388E+01  0.431E+01
   142  0.149E+04  0.307E+03  0.105E+02  0.396E+01  0.410E+01
   143  0.150E+04  0.308E+03  0.104E+02  0.396E+01  0.396E+01
   144  0.151E+04  0.308E+03  0.104E+02  0.396E+01  0.382E+01
   145  0.152E+04  0.308E+03  0.104E+02  0.402E+01  0.375E+01
   146  0.153E+04  0.308E+03  0.104E+02  0.402E+01  0.375E+01
   147  0.154E+04  0.308E+03  0.104E+02  0.402E+01  0.375E+01
   148  0.155E+04  0.308E+03  0.105E+02  0.396E+01  0.382E+01
   149  0.156E+04  0.308E+03  0.106E+02  0.389E+01  0.389E+01
   150  0.157E+04  0.308E+03  0.107E+02  0.375E+01  0.388E+01
   151  0.157E+04  0.308E+03  0.109E+02  0.368E+01  0.395E+01
   152  0.158E+04  0.308E+03  0.111E+02  0.361E+01  0.401E+01
   153  0.159E+04  0.308E+03  0.113E+02  0.348E+01  0.400E+01
   154  0.161E+04  0.308E+03  0.115E+02  0.341E+01  0.406E+01
   155  0.162E+04  0.308E+03  0.116E+02  0.327E+01  0.404E+01
   156  0.163E+04  0.308E+03  0.116E+02  0.321E+01  0.396E+01
   157  0.164E+04  0.308E+03  0.116E+02  0.315E+01  0.389E+01
   158  0.165E+04  0.308E+03  0.115E+02  0.308E+01  0.381E+01
   159  0.165E+04  0.308E+03  0.114E+02  0.309E+01  0.368E+01
   160  0.166E+04  0.308E+03  0.112E+02  0.302E+01  0.360E+01
   161  0.167E+04  0.308E+03  0.109E+02  0.302E+01  0.347E+01
   162  0.169E+04  0.308E+03  0.106E+02  0.314E+01  0.336E+01
   163  0.170E+04  0.308E+03  0.103E+02  0.313E+01  0.324E+01
   164  0.171E+04  0.308E+03  0.100E+02  0.324E+01  0.313E+01
   165  0.172E+04  0.308E+03  0.980E+01  0.332E+01  0.289E+01
   166  0.174E+04  0.308E+03  0.974E+01  0.342E+01  0.277E+01
   167  0.175E+04  0.308E+03  0.974E+01  0.351E+01  0.265E+01
   168  0.176E+04  0.308E+03  0.982E+01  0.357E+01  0.240E+01
   169  0.177E+04  0.308E+03  0.994E+01  0.369E+01  0.221E+01
   170  0.178E+04  0.308E+03  0.999E+01  0.367E+01  0.204E+01
   171  0.179E+04  0.308E+03  0.101E+02  0.378E+01  0.184E+01
   172  0.180E+04  0.308E+03  0.102E+02  0.377E+01  0.160E+01
   173  0.181E+04  0.308E+03  0.103E+02  0.373E+01  0.143E+01
   174  0.182E+04  0.308E+03  0.104E+02  0.369E+01  0.127E+01
   175  0.183E+04  0.308E+03  0.106E+02  0.363E+01  0.111E+01
   176  0.184E+04  0.308E+03  0.108E+02  0.348E+01  0.932E+00
   177  0.186E+04  0.308E+03  0.110E+02  0.340E+01  0.847E+00
   178  0.187E+04  0.308E+03  0.111E+02  0.331E+01  0.765E+00
   179  0.188E+04  0.308E+03  0.111E+02  0.321E+01  0.742E+00
   180  0.189E+04  0.308E+03  0.111E+02  0.320E+01  0.798E+00
   181  0.190E+04  0.308E+03  0.111E+02  0.319E+01  0.854E+00
   182  0.191E+04  0.308E+03  0.111E+02  0.317E+01  0.910E+00
   183  0.191E+04  0.308E+03  0.110E+02  0.314E+01  0.102E+01
   184  0.192E+04  0.308E+03  0.109E+02  0.312E+01  0.107E+01
   185  0.193E+04  0.308E+03  0.107E+02  0.317E+01  0.122E+01
   186  0.194E+04  0.308E+03  0.105E+02  0.322E+01  0.137E+01
   187  0.195E+04  0.309E+03  0.100E+02  0.329E+01  0.146E+01
   188  0.196E+04  0.309E+03  0.967E+01  0.335E+01  0.156E+01
   189  0.197E+04  0.309E+03  0.946E+01  0.341E+01  0.167E+01
   190  0.198E+04  0.309E+03  0.912E+01  0.339E+01  0.173E+01
   191  0.200E+04  0.309E+03  0.874E+01  0.344E+01  0.183E+01
   192  0.201E+04  0.309E+03  0.844E+01  0.353E+01  0.188E+01
   193  0.202E+04  0.309E+03  0.820E+01  0.353E+01  0.188E+01
   194  0.203E+04  0.309E+03  0.808E+01  0.359E+01  0.199E+01
   195  0.204E+04  0.309E+03  0.800E+01  0.359E+01  0.199E+01
   196  0.205E+04  0.309E+03  0.791E+01  0.371E+01  0.197E+01
   197  0.206E+04  0.309E+03  0.786E+01  0.371E+01  0.197E+01
   198  0.207E+04  0.309E+03  0.784E+01  0.371E+01  0.197E+01
   199  0.208E+04  0.309E+03  0.777E+01  0.383E+01  0.195E+01
   200  0.210E+04  0.309E+03  0.769E+01  0.383E+01  0.195E+01
   201  0.211E+04  0.309E+03  0.767E+01  0.395E+01  0.193E+01
   202  0.212E+04  0.310E+03  0.764E+01  0.399E+01  0.186E+01
   203  0.213E+04  0.310E+03  0.754E+01  0.399E+01  0.186E+01
   204  0.214E+04  0.310E+03  0.742E+01  0.402E+01  0.179E+01
   205  0.215E+04  0.310E+03  0.739E+01  0.414E+01  0.176E+01
   206  0.216E+04  0.310E+03  0.740E+01  0.414E+01  0.176E+01
   207  0.216E+04  0.310E+03  0.748E+01  0.414E+01  0.176E+01
   208  0.217E+04  0.310E+03  0.755E+01  0.414E+01  0.176E+01
   209  0.218E+04  0.310E+03  0.757E+01  0.414E+01  0.176E+01
   210  0.219E+04  0.310E+03  0.761E+01  0.405E+01  0.172E+01
   211  0.220E+04  0.310E+03  0.770E+01  0.402E+01  0.179E+01
   212  0.221E+04  0.310E+03  0.777E+01  0.402E+01  0.179E+01
   213  0.222E+04  0.310E+03  0.780E+01  0.393E+01  0.175E+01
   214  0.223E+04  0.310E+03  0.773E+01  0.390E+01  0.182E+01
   215  0.223E+04  0.310E+03  0.747E+01  0.381E+01  0.177E+01
   216  0.224E+04  0.310E+03  0.724E+01  0.381E+01  0.177E+01
   217  0.225E+04  0.310E+03  0.722E+01  0.372E+01  0.173E+01
   218  0.226E+04  0.310E+03  0.731E+01  0.362E+01  0.169E+01
   219  0.227E+04  0.310E+03  0.741E+01  0.354E+01  0.165E+01
   220  0.228E+04  0.310E+03  0.750E+01  0.344E+01  0.161E+01
   221  0.229E+04  0.310E+03  0.756E+01  0.335E+01  0.156E+01
   222  0.230E+04  0.310E+03  0.749E+01  0.326E+01  0.152E+01
   223  0.231E+04  0.310E+03  0.738E+01  0.308E+01  0.144E+01
   224  0.232E+04  0.310E+03  0.729E+01  0.299E+01  0.139E+01
   225  0.233E+04  0.310E+03  0.724E+01  0.290E+01  0.135E+01
   226  0.234E+04  0.310E+03  0.711E+01  0.281E+01  0.131E+01
   227  0.235E+04  0.310E+03  0.692E+01  0.281E+01  0.131E+01
   228  0.237E+04  0.311E+03  0.670E+01  0.272E+01  0.127E+01
   229  0.237E+04  0.311E+03  0.669E+01  0.263E+01  0.123E+01
   230  0.238E+04  0.311E+03  0.691E+01  0.263E+01  0.123E+01
   231  0.239E+04  0.311E+03  0.709E+01  0.263E+01  0.123E+01
   232  0.240E+04  0.311E+03  0.726E+01  0.265E+01  0.118E+01
   233  0.241E+04  0.311E+03  0.733E+01  0.267E+01  0.113E+01
   234  0.241E+04  0.310E+03  0.732E+01  0.278E+01  0.112E+01
   235  0.242E+04  0.311E+03  0.731E+01  0.280E+01  0.108E+01
   236  0.243E+04  0.311E+03  0.730E+01  0.293E+01  0.101E+01
   237  0.244E+04  0.311E+03  0.726E+01  0.296E+01  0.906E+00
   238  0.244E+04  0.311E+03  0.719E+01  0.308E+01  0.882E+00
   239  0.245E+04  0.311E+03  0.719E+01  0.311E+01  0.774E+00
   240  0.246E+04  0.311E+03  0.724E+01  0.323E+01  0.686E+00
   241  0.247E+04  0.311E+03  0.729E+01  0.325E+01  0.573E+00
   242  0.248E+04  0.311E+03  0.729E+01  0.327E+01  0.459E+00
   243  0.249E+04  0.311E+03  0.728E+01  0.338E+01  0.355E+00
   244  0.250E+04  0.311E+03  0.731E+01  0.339E+01  0.296E+00
   245  0.251E+04  0.311E+03  0.726E+01  0.339E+01  0.237E+00
   246  0.252E+04  0.311E+03  0.713E+01  0.339E+01  0.178E+00
   247  0.253E+04  0.311E+03  0.693E+01  0.339E+01  0.178E+00
   248  0.254E+04  0.311E+03  0.689E+01  0.339E+01  0.178E+00
   249  0.255E+04  0.311E+03  0.685E+01  0.339E+01  0.237E+00
   250  0.257E+04  0.311E+03  0.675E+01  0.338E+01  0.355E+00
   251  0.258E+04  0.311E+03  0.668E+01  0.336E+01  0.532E+00
   252  0.259E+04  0.311E+03  0.661E+01  0.334E+01  0.649E+00
   253  0.260E+04  0.311E+03  0.658E+01  0.340E+01  0.847E+00
   254  0.261E+04  0.311E+03  0.652E+01  0.344E+01  0.105E+01
   255  0.262E+04  0.311E+03  0.631E+01  0.348E+01  0.126E+01
   256  0.263E+04  0.312E+03  0.590E+01  0.350E+01  0.149E+01
   257  0.264E+04  0.312E+03  0.546E+01  0.360E+01  0.175E+01
   258  0.264E+04  0.312E+03  0.518E+01  0.362E+01  0.192E+01
   259  0.265E+04  0.312E+03  0.517E+01  0.364E+01  0.210E+01
   260  0.267E+04  0.312E+03  0.491E+01  0.365E+01  0.228E+01
   261  0.268E+04  0.312E+03  0.445E+01  0.365E+01  0.246E+01
   262  0.269E+04  0.312E+03  0.444E+01  0.356E+01  0.259E+01
   263  0.270E+04  0.312E+03  0.483E+01  0.347E+01  0.271E+01
   264  0.271E+04  0.312E+03  0.481E+01  0.329E+01  0.276E+01
   265  0.272E+04  0.313E+03  0.423E+01  0.307E+01  0.286E+01
   266  0.273E+04  0.313E+03  0.392E+01  0.285E+01  0.295E+01
   267  0.274E+04  0.313E+03  0.381E+01  0.262E+01  0.302E+01
   268  0.275E+04  0.314E+03  0.380E+01  0.246E+01  0.315E+01
   269  0.276E+04  0.314E+03  0.400E+01  0.218E+01  0.323E+01
   270  0.277E+04  0.314E+03  0.414E+01  0.201E+01  0.334E+01
   271  0.278E+04  0.314E+03  0.420E+01  0.177E+01  0.347E+01
   272  0.278E+04  0.314E+03  0.417E+01  0.159E+01  0.356E+01
   273  0.279E+04  0.314E+03  0.409E+01  0.146E+01  0.362E+01
   274  0.280E+04  0.314E+03  0.397E+01  0.130E+01  0.378E+01
   275  0.281E+04  0.314E+03  0.383E+01  0.124E+01  0.380E+01
   276  0.282E+04  0.314E+03  0.374E+01  0.120E+01  0.392E+01
   277  0.283E+04  0.314E+03  0.369E+01  0.113E+01  0.394E+01
   278  0.283E+04  0.314E+03  0.369E+01  0.116E+01  0.404E+01
   279  0.284E+04  0.315E+03  0.371E+01  0.109E+01  0.406E+01
   280  0.285E+04  0.315E+03  0.380E+01  0.111E+01  0.415E+01
   281  0.286E+04  0.315E+03  0.391E+01  0.111E+01  0.415E+01
   282  0.287E+04  0.315E+03  0.405E+01  0.111E+01  0.415E+01
   283  0.287E+04  0.315E+03  0.414E+01  0.114E+01  0.425E+01
   284  0.288E+04  0.315E+03  0.417E+01  0.114E+01  0.425E+01
   285  0.289E+04  0.315E+03  0.418E+01  0.106E+01  0.427E+01
   286  0.290E+04  0.315E+03  0.419E+01  0.109E+01  0.437E+01
   287  0.291E+04  0.315E+03  0.419E+01  0.101E+01  0.439E+01
   288  0.292E+04  0.315E+03  0.419E+01  0.956E+00  0.450E+01
   289  0.293E+04  0.315E+03  0.422E+01  0.878E+00  0.451E+01
   290  0.293E+04  0.315E+03  0.428E+01  0.816E+00  0.463E+01
   291  0.294E+04  0.315E+03  0.433E+01  0.751E+00  0.474E+01
   292  0.295E+04  0.315E+03  0.439E+01  0.597E+00  0.486E+01
   293  0.296E+04  0.315E+03  0.445E+01  0.523E+00  0.497E+01
   294  0.297E+04  0.315E+03  0.450E+01  0.444E+00  0.508E+01
   295  0.298E+04  0.315E+03  0.456E+01  0.356E+00  0.509E+01
   296  0.299E+04  0.315E+03  0.466E+01  0.272E+00  0.519E+01
   297  0.299E+04  0.315E+03  0.474E+01  0.181E+00  0.520E+01
   298  0.300E+04  0.315E+03  0.484E+01  0.920E-01  0.530E+01
   299  0.301E+04  0.315E+03  0.502E+01  0.920E-01  0.530E+01
   300  0.302E+04  0.315E+03  0.517E+01  0.910E-01  0.520E+01
   301  0.303E+04  0.315E+03  0.526E+01  0.181E+00  0.520E+01
   302  0.304E+04  0.315E+03  0.530E+01  0.178E+00  0.510E+01
   303  0.305E+04  0.315E+03  0.530E+01  0.262E+00  0.499E+01
   304  0.306E+04  0.315E+03  0.529E+01  0.342E+00  0.489E+01
   305  0.307E+04  0.315E+03  0.530E+01  0.418E+00  0.478E+01
   306  0.308E+04  0.315E+03  0.533E+01  0.491E+00  0.467E+01
   307  0.309E+04  0.315E+03  0.542E+01  0.561E+00  0.457E+01
   308  0.309E+04  0.315E+03  0.558E+01  0.704E+00  0.445E+01
   309  0.310E+04  0.315E+03  0.572E+01  0.747E+00  0.424E+01
   310  0.311E+04  0.315E+03  0.576E+01  0.801E+00  0.412E+01
   311  0.312E+04  0.315E+03  0.574E+01  0.852E+00  0.401E+01
   312  0.312E+04  0.315E+03  0.566E+01  0.900E+00  0.390E+01
   313  0.313E+04  0.315E+03  0.556E+01  0.968E+00  0.388E+01
   314  0.314E+04  0.315E+03  0.555E+01  0.101E+01  0.377E+01
   315  0.315E+04  0.315E+03  0.556E+01  0.105E+01  0.365E+01
   316  0.316E+04  0.315E+03  0.547E+01  0.111E+01  0.363E+01
   317  0.317E+04  0.315E+03  0.536E+01  0.108E+01  0.354E+01
   318  0.317E+04  0.315E+03  0.527E+01  0.108E+01  0.354E+01
   319  0.318E+04  0.315E+03  0.514E+01  0.111E+01  0.342E+01
   320  0.319E+04  0.315E+03  0.505E+01  0.111E+01  0.342E+01
   321  0.320E+04  0.315E+03  0.501E+01  0.111E+01  0.342E+01
   322  0.320E+04  0.315E+03  0.499E+01  0.117E+01  0.340E+01
   323  0.321E+04  0.315E+03  0.499E+01  0.114E+01  0.331E+01
   324  0.322E+04  0.316E+03  0.500E+01  0.114E+01  0.331E+01
   325  0.323E+04  0.316E+03  0.502E+01  0.108E+01  0.333E+01
   326  0.324E+04  0.316E+03  0.506E+01  0.108E+01  0.333E+01
   327  0.325E+04  0.316E+03  0.507E+01  0.105E+01  0.323E+01
   328  0.326E+04  0.316E+03  0.506E+01  0.994E+00  0.325E+01
   329  0.327E+04  0.316E+03  0.508E+01  0.994E+00  0.325E+01
   330  0.329E+04  0.316E+03  0.509E+01  0.937E+00  0.327E+01
   331  0.330E+04  0.316E+03  0.510E+01  0.937E+00  0.327E+01
   332  0.331E+04  0.316E+03  0.510E+01  0.937E+00  0.327E+01
   333  0.332E+04  0.316E+03  0.511E+01  0.965E+00  0.336E+01
   334  0.334E+04  0.316E+03  0.512E+01  0.102E+01  0.335E+01
   335  0.335E+04  0.316E+03  0.513E+01  0.111E+01  0.342E+01
   336  0.336E+04  0.316E+03  0.513E+01  0.126E+01  0.348E+01
   337  0.337E+04  0.316E+03  0.514E+01  0.142E+01  0.352E+01
   338  0.338E+04  0.316E+03  0.516E+01  0.163E+01  0.365E+01
   339  0.339E+04  0.316E+03  0.515E+01  0.180E+01  0.368E+01
   340  0.340E+04  0.316E+03  0.514E+01  0.197E+01  0.371E+01
   341  0.341E+04  0.316E+03  0.512E+01  0.215E+01  0.372E+01
   342  0.342E+04  0.316E+03  0.510E+01  0.233E+01  0.373E+01
   343  0.343E+04  0.316E+03  0.507E+01  0.240E+01  0.369E+01
   344  0.344E+04  0.316E+03  0.505E+01  0.246E+01  0.365E+01
   345  0.345E+04  0.316E+03  0.505E+01  0.252E+01  0.360E+01
   346  0.346E+04  0.316E+03  0.504E+01  0.259E+01  0.356E+01
   347  0.347E+04  0.316E+03  0.502E+01  0.265E+01  0.351E+01
   348  0.348E+04  0.316E+03  0.502E+01  0.259E+01  0.343E+01
   349  0.349E+04  0.316E+03  0.501E+01  0.259E+01  0.343E+01
   350  0.350E+04  0.316E+03  0.500E+01  0.253E+01  0.348E+01
   351  0.351E+04  0.316E+03  0.501E+01  0.253E+01  0.348E+01
   352  0.352E+04  0.316E+03  0.500E+01  0.247E+01  0.352E+01
   353  0.353E+04  0.316E+03  0.500E+01  0.247E+01  0.352E+01
   354  0.354E+04  0.316E+03  0.499E+01  0.246E+01  0.365E+01
   355  0.355E+04  0.316E+03  0.497E+01  0.245E+01  0.377E+01
   356  0.356E+04  0.316E+03  0.496E+01  0.244E+01  0.390E+01
   357  0.358E+04  0.316E+03  0.495E+01  0.249E+01  0.399E+01
   358  0.359E+04  0.317E+03  0.494E+01  0.247E+01  0.411E+01
   359  0.360E+04  0.317E+03  0.493E+01  0.252E+01  0.420E+01
   360  0.361E+04  0.317E+03  0.492E+01  0.258E+01  0.429E+01
   361  0.362E+04  0.317E+03  0.489E+01  0.258E+01  0.429E+01
   362  0.363E+04  0.317E+03  0.483E+01  0.258E+01  0.429E+01
   363  0.364E+04  0.317E+03  0.481E+01  0.258E+01  0.429E+01
   364  0.365E+04  0.317E+03  0.480E+01  0.252E+01  0.420E+01
   365  0.366E+04  0.317E+03  0.480E+01  0.252E+01  0.420E+01
   366  0.367E+04  0.317E+03  0.480E+01  0.247E+01  0.411E+01
   367  0.368E+04  0.317E+03  0.480E+01  0.242E+01  0.403E+01
   368  0.368E+04  0.317E+03  0.480E+01  0.235E+01  0.407E+01
   369  0.369E+04  0.317E+03  0.479E+01  0.230E+01  0.398E+01
   370  0.370E+04  0.317E+03  0.479E+01  0.223E+01  0.402E+01
   371  0.371E+04  0.317E+03  0.479E+01  0.218E+01  0.394E+01
   372  0.372E+04  0.317E+03  0.479E+01  0.211E+01  0.397E+01
   373  0.373E+04  0.317E+03  0.478E+01  0.204E+01  0.401E+01
   374  0.374E+04  0.317E+03  0.479E+01  0.194E+01  0.417E+01
   375  0.375E+04  0.317E+03  0.478E+01  0.187E+01  0.420E+01
   376  0.376E+04  0.317E+03  0.478E+01  0.184E+01  0.433E+01
   377  0.377E+04  0.317E+03  0.480E+01  0.176E+01  0.436E+01
   378  0.378E+04  0.317E+03  0.480E+01  0.172E+01  0.448E+01
   379  0.379E+04  0.317E+03  0.479E+01  0.168E+01  0.460E+01
   380  0.380E+04  0.317E+03  0.478E+01  0.163E+01  0.473E+01
   381  0.381E+04  0.317E+03  0.477E+01  0.166E+01  0.482E+01
   382  0.382E+04  0.317E+03  0.478E+01  0.158E+01  0.485E+01
   383  0.383E+04  0.317E+03  0.476E+01  0.161E+01  0.495E+01
   384  0.385E+04  0.317E+03  0.469E+01  0.152E+01  0.497E+01
   385  0.386E+04  0.317E+03  0.467E+01  0.152E+01  0.497E+01
   386  0.387E+04  0.317E+03  0.472E+01  0.143E+01  0.500E+01
   387  0.388E+04  0.317E+03  0.475E+01  0.141E+01  0.490E+01
   388  0.389E+04  0.317E+03  0.478E+01  0.132E+01  0.493E+01
   389  0.390E+04  0.317E+03  0.479E+01  0.129E+01  0.483E+01
   390  0.390E+04  0.317E+03  0.479E+01  0.118E+01  0.475E+01
   391  0.391E+04  0.317E+03  0.480E+01  0.116E+01  0.466E+01
   392  0.392E+04  0.317E+03  0.480E+01  0.106E+01  0.458E+01
   393  0.393E+04  0.317E+03  0.482E+01  0.103E+01  0.448E+01
   394  0.394E+04  0.317E+03  0.482E+01  0.101E+01  0.439E+01
   395  0.395E+04  0.317E+03  0.483E+01  0.990E+00  0.429E+01
   396  0.395E+04  0.317E+03  0.484E+01  0.967E+00  0.419E+01
   397  0.396E+04  0.317E+03  0.483E+01  0.967E+00  0.419E+01
   398  0.397E+04  0.317E+03  0.484E+01  0.894E+00  0.421E+01
   399  0.399E+04  0.317E+03  0.485E+01  0.894E+00  0.421E+01
   400  0.400E+04  0.317E+03  0.486E+01  0.820E+00  0.422E+01
   401  0.401E+04  0.317E+03  0.486E+01  0.747E+00  0.424E+01
   402  0.401E+04  0.317E+03  0.484E+01  0.612E+00  0.436E+01
   403  0.402E+04  0.317E+03  0.481E+01  0.536E+00  0.437E+01
   404  0.403E+04  0.317E+03  0.473E+01  0.392E+00  0.448E+01
   405  0.404E+04  0.317E+03  0.463E+01  0.321E+00  0.459E+01
   406  0.405E+04  0.317E+03  0.462E+01  0.161E+00  0.460E+01
   407  0.406E+04  0.317E+03  0.470E+01  0.800E-01  0.460E+01
   408  0.407E+04  0.317E+03  0.477E+01  0.000E+00  0.470E+01
   409  0.408E+04  0.317E+03  0.480E+01 -0.820E-01  0.470E+01
   410  0.408E+04  0.317E+03  0.482E+01 -0.164E+00  0.470E+01
   411  0.409E+04  0.317E+03  0.484E+01 -0.164E+00  0.470E+01
   412  0.410E+04  0.317E+03  0.484E+01 -0.161E+00  0.460E+01
   413  0.411E+04  0.317E+03  0.484E+01 -0.161E+00  0.460E+01
   414  0.412E+04  0.317E+03  0.484E+01 -0.157E+00  0.450E+01
   415  0.412E+04  0.317E+03  0.484E+01 -0.790E-01  0.450E+01
   416  0.413E+04  0.317E+03  0.481E+01 -0.770E-01  0.440E+01
   417  0.414E+04  0.317E+03  0.476E+01 -0.770E-01  0.440E+01
   418  0.415E+04  0.317E+03  0.472E+01  0.000E+00  0.440E+01
   419  0.416E+04  0.317E+03  0.467E+01  0.000E+00  0.440E+01
   420  0.417E+04  0.317E+03  0.463E+01  0.000E+00  0.440E+01
   421  0.418E+04  0.318E+03  0.462E+01  0.770E-01  0.440E+01
   422  0.418E+04  0.318E+03  0.463E+01  0.770E-01  0.440E+01
   423  0.419E+04  0.318E+03  0.462E+01  0.770E-01  0.440E+01
   424  0.420E+04  0.318E+03  0.461E+01  0.157E+00  0.450E+01
   425  0.421E+04  0.318E+03  0.462E+01  0.157E+00  0.450E+01
   426  0.422E+04  0.318E+03  0.461E+01  0.236E+00  0.449E+01
   427  0.423E+04  0.318E+03  0.461E+01  0.241E+00  0.459E+01
   428  0.423E+04  0.318E+03  0.464E+01  0.241E+00  0.459E+01
   429  0.424E+04  0.318E+03  0.463E+01  0.321E+00  0.459E+01
   430  0.425E+04  0.318E+03  0.459E+01  0.321E+00  0.459E+01
   431  0.426E+04  0.318E+03  0.461E+01  0.410E+00  0.468E+01
   432  0.427E+04  0.318E+03  0.460E+01  0.410E+00  0.468E+01
   433  0.428E+04  0.318E+03  0.457E+01  0.410E+00  0.468E+01
   434  0.429E+04  0.318E+03  0.456E+01  0.328E+00  0.469E+01
   435  0.430E+04  0.318E+03  0.458E+01  0.328E+00  0.469E+01
   436  0.430E+04  0.318E+03  0.461E+01  0.328E+00  0.469E+01
   437  0.431E+04  0.318E+03  0.460E+01  0.246E+00  0.469E+01
   438  0.433E+04  0.318E+03  0.459E+01  0.246E+00  0.469E+01
   439  0.434E+04  0.318E+03  0.459E+01  0.164E+00  0.470E+01
   440  0.434E+04  0.318E+03  0.459E+01  0.164E+00  0.470E+01
   441  0.435E+04  0.318E+03  0.456E+01  0.164E+00  0.470E+01
   442  0.436E+04  0.318E+03  0.453E+01  0.161E+00  0.460E+01
   443  0.437E+04  0.318E+03  0.451E+01  0.161E+00  0.460E+01
   444  0.438E+04  0.318E+03  0.450E+01  0.236E+00  0.449E+01
   445  0.439E+04  0.318E+03  0.447E+01  0.314E+00  0.449E+01
   446  0.440E+04  0.318E+03  0.444E+01  0.383E+00  0.438E+01
   447  0.440E+04  0.318E+03  0.442E+01  0.449E+00  0.428E+01
   448  0.441E+04  0.318E+03  0.442E+01  0.598E+00  0.426E+01
   449  0.442E+04  0.318E+03  0.445E+01  0.729E+00  0.414E+01
   450  0.443E+04  0.318E+03  0.449E+01  0.852E+00  0.401E+01
   451  0.444E+04  0.318E+03  0.452E+01  0.106E+01  0.396E+01
   452  0.445E+04  0.318E+03  0.451E+01  0.120E+01  0.392E+01
   453  0.446E+04  0.318E+03  0.450E+01  0.134E+01  0.388E+01
   454  0.447E+04  0.318E+03  0.451E+01  0.147E+01  0.383E+01
   455  0.448E+04  0.318E+03  0.453E+01  0.160E+01  0.377E+01
   456  0.448E+04  0.318E+03  0.452E+01  0.167E+01  0.375E+01
   457  0.449E+04  0.318E+03  0.451E+01  0.184E+01  0.378E+01
   458  0.450E+04  0.318E+03  0.450E+01  0.191E+01  0.374E+01
   459  0.451E+04  0.318E+03  0.448E+01  0.202E+01  0.380E+01
   460  0.452E+04  0.318E+03  0.446E+01  0.202E+01  0.380E+01
   461  0.453E+04  0.318E+03  0.441E+01  0.202E+01  0.380E+01
   462  0.454E+04  0.318E+03  0.438E+01  0.213E+01  0.385E+01
   463  0.455E+04  0.318E+03  0.439E+01  0.213E+01  0.385E+01
   464  0.456E+04  0.318E+03  0.439E+01  0.218E+01  0.394E+01
   465  0.456E+04  0.318E+03  0.438E+01  0.218E+01  0.394E+01
   466  0.457E+04  0.318E+03  0.440E+01  0.218E+01  0.394E+01
   467  0.458E+04  0.318E+03  0.440E+01  0.218E+01  0.394E+01
   468  0.459E+04  0.318E+03  0.437E+01  0.218E+01  0.394E+01
   469  0.460E+04  0.318E+03  0.436E+01  0.218E+01  0.394E+01
   470  0.461E+04  0.318E+03  0.432E+01  0.218E+01  0.394E+01
   471  0.462E+04  0.318E+03  0.421E+01  0.218E+01  0.394E+01
   472  0.463E+04  0.319E+03  0.413E+01  0.218E+01  0.394E+01
   473  0.463E+04  0.319E+03  0.409E+01  0.218E+01  0.394E+01
   474  0.464E+04  0.319E+03  0.408E+01  0.218E+01  0.394E+01
   475  0.465E+04  0.319E+03  0.409E+01  0.211E+01  0.397E+01
   476  0.466E+04  0.319E+03  0.412E+01  0.211E+01  0.397E+01
   477  0.467E+04  0.319E+03  0.416E+01  0.200E+01  0.392E+01
   478  0.468E+04  0.319E+03  0.418E+01  0.193E+01  0.395E+01
   479  0.469E+04  0.319E+03  0.420E+01  0.186E+01  0.399E+01
   480  0.470E+04  0.319E+03  0.420E+01  0.179E+01  0.402E+01
   481  0.470E+04  0.319E+03  0.420E+01  0.172E+01  0.405E+01
   482  0.471E+04  0.319E+03  0.421E+01  0.165E+01  0.408E+01
   483  0.472E+04  0.319E+03  0.418E+01  0.158E+01  0.411E+01
   484  0.473E+04  0.319E+03  0.414E+01  0.154E+01  0.423E+01
   485  0.474E+04  0.319E+03  0.411E+01  0.147E+01  0.426E+01
   486  0.475E+04  0.319E+03  0.406E+01  0.139E+01  0.428E+01
   487  0.476E+04  0.319E+03  0.401E+01  0.135E+01  0.440E+01
   488  0.477E+04  0.319E+03  0.395E+01  0.127E+01  0.442E+01
   489  0.478E+04  0.319E+03  0.392E+01  0.129E+01  0.452E+01
   490  0.478E+04  0.319E+03  0.393E+01  0.122E+01  0.454E+01
   491  0.479E+04  0.319E+03  0.393E+01  0.124E+01  0.464E+01
   492  0.480E+04  0.319E+03  0.390E+01  0.116E+01  0.466E+01
   493  0.481E+04  0.319E+03  0.384E+01  0.118E+01  0.475E+01
   494  0.482E+04  0.319E+03  0.381E+01  0.118E+01  0.475E+01
   495  0.483E+04  0.319E+03  0.378E+01  0.112E+01  0.487E+01
   496  0.484E+04  0.319E+03  0.377E+01  0.115E+01  0.497E+01
   497  0.485E+04  0.319E+03  0.377E+01  0.115E+01  0.497E+01
   498  0.486E+04  0.319E+03  0.376E+01  0.108E+01  0.509E+01
   499  0.487E+04  0.319E+03  0.376E+01  0.108E+01  0.509E+01
   500  0.488E+04  0.319E+03  0.378E+01  0.110E+01  0.518E+01
   501  0.489E+04  0.319E+03  0.381E+01  0.110E+01  0.518E+01
   502  0.490E+04  0.319E+03  0.385E+01  0.110E+01  0.518E+01
   503  0.491E+04  0.319E+03  0.388E+01  0.110E+01  0.518E+01
   504  0.492E+04  0.319E+03  0.389E+01  0.110E+01  0.518E+01
   505  0.493E+04  0.319E+03  0.390E+01  0.110E+01  0.518E+01
   506  0.494E+04  0.319E+03  0.389E+01  0.108E+01  0.509E+01
   507  0.495E+04  0.319E+03  0.388E+01  0.106E+01  0.499E+01
   508  0.496E+04  0.319E+03  0.383E+01  0.112E+01  0.487E+01
   509  0.497E+04  0.319E+03  0.371E+01  0.110E+01  0.477E+01
   510  0.498E+04  0.319E+03  0.360E+01  0.114E+01  0.456E+01
   511  0.499E+04  0.319E+03  0.357E+01  0.119E+01  0.444E+01
   512  0.500E+04  0.319E+03  0.357E+01  0.124E+01  0.433E+01
   513  0.500E+04  0.319E+03  0.358E+01  0.129E+01  0.421E+01
   514  0.501E+04  0.319E+03  0.360E+01  0.140E+01  0.407E+01
   515  0.502E+04  0.320E+03  0.362E+01  0.144E+01  0.395E+01
   516  0.504E+04  0.320E+03  0.365E+01  0.154E+01  0.380E+01
   517  0.505E+04  0.320E+03  0.366E+01  0.167E+01  0.375E+01
   518  0.506E+04  0.320E+03  0.368E+01  0.180E+01  0.368E+01
   519  0.507E+04  0.320E+03  0.371E+01  0.199E+01  0.359E+01
   520  0.508E+04  0.320E+03  0.371E+01  0.211E+01  0.351E+01
   521  0.509E+04  0.320E+03  0.370E+01  0.229E+01  0.352E+01
   522  0.510E+04  0.320E+03  0.367E+01  0.235E+01  0.348E+01
   523  0.511E+04  0.320E+03  0.363E+01  0.253E+01  0.348E+01
   524  0.512E+04  0.320E+03  0.360E+01  0.265E+01  0.351E+01
   525  0.513E+04  0.320E+03  0.359E+01  0.277E+01  0.342E+01
   526  0.514E+04  0.320E+03  0.356E+01  0.289E+01  0.345E+01
   527  0.514E+04  0.320E+03  0.350E+01  0.289E+01  0.345E+01
   528  0.515E+04  0.320E+03  0.345E+01  0.302E+01  0.347E+01
   529  0.516E+04  0.320E+03  0.344E+01  0.302E+01  0.347E+01
   530  0.517E+04  0.320E+03  0.344E+01  0.314E+01  0.349E+01
   531  0.518E+04  0.320E+03  0.342E+01  0.314E+01  0.349E+01
   532  0.519E+04  0.320E+03  0.335E+01  0.314E+01  0.349E+01
   533  0.520E+04  0.320E+03  0.331E+01  0.314E+01  0.349E+01
   534  0.521E+04  0.320E+03  0.331E+01  0.314E+01  0.349E+01
   535  0.521E+04  0.320E+03  0.327E+01  0.321E+01  0.357E+01
   536  0.522E+04  0.320E+03  0.320E+01  0.327E+01  0.351E+01
   537  0.523E+04  0.320E+03  0.317E+01  0.327E+01  0.351E+01
   538  0.524E+04  0.320E+03  0.314E+01  0.327E+01  0.351E+01
   539  0.525E+04  0.320E+03  0.309E+01  0.327E+01  0.351E+01
   540  0.526E+04  0.320E+03  0.305E+01  0.327E+01  0.351E+01
   541  0.526E+04  0.320E+03  0.302E+01  0.327E+01  0.351E+01
   542  0.527E+04  0.320E+03  0.299E+01  0.334E+01  0.358E+01
   543  0.528E+04  0.320E+03  0.298E+01  0.334E+01  0.358E+01
   544  0.529E+04  0.321E+03  0.298E+01  0.333E+01  0.345E+01
   545  0.530E+04  0.321E+03  0.299E+01  0.333E+01  0.345E+01
   546  0.531E+04  0.321E+03  0.298E+01  0.333E+01  0.345E+01
   547  0.532E+04  0.321E+03  0.296E+01  0.333E+01  0.345E+01
   548  0.533E+04  0.321E+03  0.294E+01  0.333E+01  0.345E+01
   549  0.534E+04  0.321E+03  0.294E+01  0.339E+01  0.339E+01
   550  0.535E+04  0.321E+03  0.293E+01  0.332E+01  0.332E+01
   551  0.535E+04  0.321E+03  0.293E+01  0.332E+01  0.332E+01
   552  0.536E+04  0.321E+03  0.294E+01  0.332E+01  0.332E+01
   553  0.537E+04  0.321E+03  0.291E+01  0.325E+01  0.325E+01
   554  0.538E+04  0.321E+03  0.288E+01  0.325E+01  0.325E+01
   555  0.539E+04  0.321E+03  0.287E+01  0.325E+01  0.325E+01
   556  0.540E+04  0.321E+03  0.286E+01  0.318E+01  0.318E+01
   557  0.541E+04  0.321E+03  0.289E+01  0.324E+01  0.313E+01
   558  0.542E+04  0.321E+03  0.290E+01  0.316E+01  0.306E+01
   559  0.543E+04  0.321E+03  0.291E+01  0.316E+01  0.306E+01
   560  0.544E+04  0.321E+03  0.291E+01  0.311E+01  0.311E+01
   561  0.545E+04  0.321E+03  0.291E+01  0.304E+01  0.304E+01
   562  0.546E+04  0.321E+03  0.291E+01  0.297E+01  0.297E+01
   563  0.547E+04  0.321E+03  0.291E+01  0.292E+01  0.302E+01
   564  0.548E+04  0.321E+03  0.289E+01  0.280E+01  0.300E+01
   565  0.549E+04  0.321E+03  0.288E+01  0.274E+01  0.305E+01
   566  0.549E+04  0.321E+03  0.288E+01  0.262E+01  0.302E+01
   567  0.550E+04  0.321E+03  0.287E+01  0.257E+01  0.306E+01
   568  0.551E+04  0.321E+03  0.288E+01  0.246E+01  0.315E+01
   569  0.552E+04  0.321E+03  0.288E+01  0.241E+01  0.319E+01
   570  0.553E+04  0.321E+03  0.287E+01  0.235E+01  0.336E+01
   571  0.555E+04  0.321E+03  0.285E+01  0.229E+01  0.340E+01
   572  0.556E+04  0.321E+03  0.281E+01  0.229E+01  0.352E+01
   573  0.557E+04  0.322E+03  0.267E+01  0.228E+01  0.365E+01
   574  0.557E+04  0.322E+03  0.246E+01  0.233E+01  0.373E+01
   575  0.558E+04  0.323E+03  0.227E+01  0.238E+01  0.382E+01
   576  0.559E+04  0.323E+03  0.217E+01  0.244E+01  0.390E+01
   577  0.560E+04  0.323E+03  0.207E+01  0.249E+01  0.399E+01
   578  0.561E+04  0.323E+03  0.195E+01  0.260E+01  0.416E+01
   579  0.562E+04  0.323E+03  0.185E+01  0.272E+01  0.419E+01
   580  0.563E+04  0.324E+03  0.180E+01  0.285E+01  0.423E+01
   581  0.564E+04  0.324E+03  0.177E+01  0.298E+01  0.426E+01
   582  0.565E+04  0.324E+03  0.172E+01  0.312E+01  0.429E+01
   583  0.566E+04  0.324E+03  0.168E+01  0.325E+01  0.431E+01
   584  0.567E+04  0.324E+03  0.167E+01  0.339E+01  0.433E+01
   585  0.568E+04  0.324E+03  0.167E+01  0.345E+01  0.441E+01
   586  0.569E+04  0.324E+03  0.166E+01  0.359E+01  0.443E+01
   587  0.570E+04  0.324E+03  0.166E+01  0.373E+01  0.444E+01
   588  0.571E+04  0.324E+03  0.165E+01  0.387E+01  0.445E+01
   589  0.572E+04  0.324E+03  0.163E+01  0.394E+01  0.453E+01
   590  0.574E+04  0.324E+03  0.162E+01  0.400E+01  0.460E+01
   591  0.574E+04  0.324E+03  0.162E+01  0.408E+01  0.453E+01
   592  0.575E+04  0.324E+03  0.161E+01  0.407E+01  0.468E+01
   593  0.576E+04  0.324E+03  0.159E+01  0.407E+01  0.468E+01
   594  0.577E+04  0.325E+03  0.158E+01  0.407E+01  0.468E+01
   595  0.578E+04  0.325E+03  0.156E+01  0.398E+01  0.475E+01
   596  0.579E+04  0.325E+03  0.154E+01  0.398E+01  0.475E+01
   597  0.580E+04  0.325E+03  0.151E+01  0.390E+01  0.482E+01
   598  0.581E+04  0.325E+03  0.149E+01  0.376E+01  0.481E+01
   599  0.582E+04  0.325E+03  0.146E+01  0.376E+01  0.481E+01
   600  0.583E+04  0.325E+03  0.144E+01  0.367E+01  0.487E+01
   601  0.584E+04  0.325E+03  0.143E+01  0.353E+01  0.485E+01
   602  0.585E+04  0.325E+03  0.143E+01  0.353E+01  0.485E+01
   603  0.586E+04  0.325E+03  0.142E+01  0.353E+01  0.485E+01
   604  0.587E+04  0.325E+03  0.142E+01  0.353E+01  0.485E+01
   605  0.588E+04  0.325E+03  0.142E+01  0.353E+01  0.485E+01
   606  0.589E+04  0.325E+03  0.141E+01  0.353E+01  0.485E+01
   607  0.590E+04  0.325E+03  0.141E+01  0.353E+01  0.485E+01
   608  0.591E+04  0.325E+03  0.141E+01  0.359E+01  0.493E+01
   609  0.592E+04  0.325E+03  0.141E+01  0.367E+01  0.487E+01
   610  0.594E+04  0.325E+03  0.141E+01  0.373E+01  0.495E+01
   611  0.595E+04  0.325E+03  0.140E+01  0.379E+01  0.503E+01
   612  0.597E+04  0.325E+03  0.139E+01  0.385E+01  0.511E+01
   613  0.598E+04  0.325E+03  0.139E+01  0.391E+01  0.519E+01
   614  0.598E+04  0.325E+03  0.138E+01  0.406E+01  0.520E+01
   615  0.599E+04  0.325E+03  0.136E+01  0.412E+01  0.528E+01
   616  0.600E+04  0.325E+03  0.135E+01  0.419E+01  0.536E+01
   617  0.601E+04  0.326E+03  0.134E+01  0.425E+01  0.544E+01
   618  0.602E+04  0.325E+03  0.134E+01  0.425E+01  0.544E+01
   619  0.603E+04  0.326E+03  0.133E+01  0.441E+01  0.544E+01
   620  0.604E+04  0.326E+03  0.132E+01  0.447E+01  0.552E+01
   621  0.605E+04  0.326E+03  0.131E+01  0.463E+01  0.552E+01
   622  0.606E+04  0.326E+03  0.129E+01  0.469E+01  0.559E+01
   623  0.607E+04  0.326E+03  0.127E+01  0.486E+01  0.559E+01
   624  0.608E+04  0.326E+03  0.126E+01  0.492E+01  0.566E+01
   625  0.609E+04  0.326E+03  0.124E+01  0.509E+01  0.565E+01
   626  0.610E+04  0.326E+03  0.123E+01  0.518E+01  0.556E+01
   627  0.611E+04  0.326E+03  0.123E+01  0.525E+01  0.563E+01
   628  0.612E+04  0.326E+03  0.122E+01  0.542E+01  0.561E+01
   629  0.613E+04  0.326E+03  0.122E+01  0.549E+01  0.568E+01
   630  0.614E+04  0.326E+03  0.121E+01  0.556E+01  0.576E+01
   631  0.615E+04  0.326E+03  0.121E+01  0.573E+01  0.573E+01
   632  0.616E+04  0.326E+03  0.121E+01  0.573E+01  0.573E+01
   633  0.617E+04  0.326E+03  0.122E+01  0.580E+01  0.580E+01
   634  0.618E+04  0.326E+03  0.122E+01  0.580E+01  0.580E+01
   635  0.619E+04  0.326E+03  0.122E+01  0.587E+01  0.587E+01
   636  0.620E+04  0.326E+03  0.123E+01  0.587E+01  0.587E+01
   637  0.621E+04  0.326E+03  0.123E+01  0.587E+01  0.587E+01
   638  0.622E+04  0.326E+03  0.123E+01  0.587E+01  0.587E+01
   639  0.623E+04  0.326E+03  0.123E+01  0.584E+01  0.604E+01
   640  0.624E+04  0.326E+03  0.124E+01  0.584E+01  0.604E+01
   641  0.625E+04  0.326E+03  0.125E+01  0.584E+01  0.604E+01
   642  0.625E+04  0.326E+03  0.126E+01  0.584E+01  0.604E+01
   643  0.626E+04  0.326E+03  0.127E+01  0.584E+01  0.604E+01
   644  0.627E+04  0.326E+03  0.127E+01  0.584E+01  0.604E+01
   645  0.628E+04  0.326E+03  0.128E+01  0.584E+01  0.604E+01
   646  0.629E+04  0.326E+03  0.129E+01  0.584E+01  0.604E+01
   647  0.630E+04  0.326E+03  0.129E+01  0.584E+01  0.604E+01
   648  0.631E+04  0.326E+03  0.129E+01  0.584E+01  0.604E+01
   649  0.631E+04  0.326E+03  0.129E+01  0.601E+01  0.601E+01
   650  0.632E+04  0.326E+03  0.129E+01  0.601E+01  0.601E+01
   651  0.633E+04  0.326E+03  0.129E+01  0.601E+01  0.601E+01
   652  0.634E+04  0.326E+03  0.130E+01  0.601E+01  0.601E+01
   653  0.635E+04  0.326E+03  0.130E+01  0.608E+01  0.608E+01
   654  0.636E+04  0.326E+03  0.129E+01  0.608E+01  0.608E+01
   655  0.637E+04  0.326E+03  0.129E+01  0.608E+01  0.608E+01
   656  0.638E+04  0.326E+03  0.128E+01  0.619E+01  0.597E+01
   657  0.638E+04  0.326E+03  0.128E+01  0.619E+01  0.597E+01
   658  0.639E+04  0.326E+03  0.128E+01  0.626E+01  0.604E+01
   659  0.640E+04  0.326E+03  0.128E+01  0.626E+01  0.604E+01
   660  0.641E+04  0.326E+03  0.129E+01  0.626E+01  0.604E+01
   661  0.642E+04  0.326E+03  0.129E+01  0.619E+01  0.597E+01
   662  0.643E+04  0.326E+03  0.129E+01  0.629E+01  0.586E+01
   663  0.644E+04  0.326E+03  0.128E+01  0.629E+01  0.586E+01
   664  0.645E+04  0.326E+03  0.128E+01  0.629E+01  0.586E+01
   665  0.645E+04  0.326E+03  0.130E+01  0.622E+01  0.580E+01
   666  0.646E+04  0.326E+03  0.132E+01  0.614E+01  0.573E+01
   667  0.647E+04  0.326E+03  0.132E+01  0.624E+01  0.562E+01
   668  0.648E+04  0.326E+03  0.131E+01  0.617E+01  0.555E+01
   669  0.649E+04  0.326E+03  0.131E+01  0.609E+01  0.549E+01
   670  0.650E+04  0.326E+03  0.131E+01  0.611E+01  0.531E+01
   671  0.650E+04  0.326E+03  0.132E+01  0.604E+01  0.525E+01
   672  0.651E+04  0.326E+03  0.129E+01  0.605E+01  0.508E+01
   673  0.652E+04  0.326E+03  0.125E+01  0.597E+01  0.501E+01
   674  0.653E+04  0.326E+03  0.123E+01  0.606E+01  0.491E+01
   675  0.654E+04  0.326E+03  0.124E+01  0.598E+01  0.485E+01
   676  0.655E+04  0.326E+03  0.125E+01  0.599E+01  0.468E+01
   677  0.655E+04  0.326E+03  0.124E+01  0.599E+01  0.451E+01
   678  0.656E+04  0.326E+03  0.122E+01  0.591E+01  0.445E+01
   679  0.657E+04  0.327E+03  0.119E+01  0.599E+01  0.435E+01
   680  0.658E+04  0.327E+03  0.117E+01  0.591E+01  0.429E+01
   681  0.659E+04  0.327E+03  0.116E+01  0.598E+01  0.419E+01
   682  0.660E+04  0.327E+03  0.117E+01  0.605E+01  0.408E+01
   683  0.661E+04  0.327E+03  0.117E+01  0.597E+01  0.403E+01
   684  0.662E+04  0.327E+03  0.116E+01  0.604E+01  0.392E+01
   685  0.662E+04  0.327E+03  0.115E+01  0.604E+01  0.392E+01
   686  0.663E+04  0.327E+03  0.114E+01  0.604E+01  0.392E+01
   687  0.664E+04  0.327E+03  0.114E+01  0.602E+01  0.376E+01
   688  0.665E+04  0.327E+03  0.114E+01  0.602E+01  0.376E+01
   689  0.666E+04  0.327E+03  0.113E+01  0.594E+01  0.371E+01
   690  0.667E+04  0.327E+03  0.112E+01  0.585E+01  0.366E+01
   691  0.667E+04  0.327E+03  0.110E+01  0.583E+01  0.350E+01
   692  0.668E+04  0.327E+03  0.110E+01  0.583E+01  0.350E+01
   693  0.669E+04  0.327E+03  0.110E+01  0.574E+01  0.345E+01
   694  0.670E+04  0.327E+03  0.109E+01  0.557E+01  0.335E+01
   695  0.671E+04  0.327E+03  0.106E+01  0.543E+01  0.339E+01
   696  0.671E+04  0.327E+03  0.104E+01  0.534E+01  0.334E+01
   697  0.672E+04  0.327E+03  0.104E+01  0.526E+01  0.329E+01
   698  0.673E+04  0.327E+03  0.104E+01  0.517E+01  0.323E+01
   699  0.674E+04  0.327E+03  0.104E+01  0.503E+01  0.327E+01
   700  0.675E+04  0.327E+03  0.104E+01  0.489E+01  0.330E+01
   701  0.676E+04  0.327E+03  0.103E+01  0.475E+01  0.333E+01
   702  0.676E+04  0.327E+03  0.103E+01  0.461E+01  0.335E+01
   703  0.677E+04  0.327E+03  0.103E+01  0.455E+01  0.343E+01
   704  0.678E+04  0.327E+03  0.101E+01  0.441E+01  0.345E+01
   705  0.679E+04  0.327E+03  0.993E+00  0.429E+01  0.360E+01
   706  0.680E+04  0.327E+03  0.954E+00  0.415E+01  0.361E+01
   707  0.681E+04  0.327E+03  0.919E+00  0.402E+01  0.375E+01
   708  0.682E+04  0.327E+03  0.917E+00  0.389E+01  0.389E+01
   709  0.683E+04  0.327E+03  0.934E+00  0.389E+01  0.403E+01
   710  0.684E+04  0.327E+03  0.947E+00  0.375E+01  0.416E+01
   711  0.685E+04  0.327E+03  0.930E+00  0.367E+01  0.423E+01
   712  0.686E+04  0.328E+03  0.893E+00  0.366E+01  0.437E+01
   713  0.687E+04  0.328E+03  0.873E+00  0.359E+01  0.443E+01
   714  0.688E+04  0.328E+03  0.874E+00  0.357E+01  0.457E+01
   715  0.688E+04  0.328E+03  0.872E+00  0.355E+01  0.471E+01
   716  0.689E+04  0.328E+03  0.864E+00  0.347E+01  0.477E+01
   717  0.690E+04  0.328E+03  0.851E+00  0.353E+01  0.485E+01
   718  0.691E+04  0.328E+03  0.836E+00  0.359E+01  0.493E+01
   719  0.692E+04  0.328E+03  0.827E+00  0.359E+01  0.493E+01
   720  0.693E+04  0.328E+03  0.824E+00  0.364E+01  0.502E+01
   721  0.694E+04  0.328E+03  0.818E+00  0.373E+01  0.495E+01
   722  0.694E+04  0.328E+03  0.807E+00  0.373E+01  0.495E+01
   723  0.695E+04  0.328E+03  0.792E+00  0.382E+01  0.489E+01
   724  0.696E+04  0.328E+03  0.783E+00  0.390E+01  0.482E+01
   725  0.697E+04  0.328E+03  0.781E+00  0.398E+01  0.475E+01
   726  0.698E+04  0.328E+03  0.767E+00  0.407E+01  0.468E+01
   727  0.699E+04  0.328E+03  0.728E+00  0.416E+01  0.446E+01
   728  0.701E+04  0.328E+03  0.665E+00  0.417E+01  0.432E+01
   729  0.702E+04  0.328E+03  0.622E+00  0.424E+01  0.410E+01
   730  0.703E+04  0.328E+03  0.588E+00  0.424E+01  0.396E+01
   731  0.704E+04  0.328E+03  0.541E+00  0.423E+01  0.367E+01
   732  0.705E+04  0.328E+03  0.496E+00  0.427E+01  0.346E+01
   733  0.706E+04  0.329E+03  0.471E+00  0.423E+01  0.319E+01
   734  0.707E+04  0.329E+03  0.460E+00  0.413E+01  0.300E+01
   735  0.708E+04  0.329E+03  0.454E+00  0.406E+01  0.274E+01
   736  0.708E+04  0.329E+03  0.443E+00  0.407E+01  0.254E+01
   737  0.709E+04  0.329E+03  0.431E+00  0.398E+01  0.230E+01
   738  0.710E+04  0.329E+03  0.426E+00  0.388E+01  0.207E+01
   739  0.711E+04  0.329E+03  0.423E+00  0.387E+01  0.188E+01
   740  0.712E+04  0.329E+03  0.414E+00  0.381E+01  0.177E+01
   741  0.713E+04  0.329E+03  0.396E+00  0.377E+01  0.160E+01
   742  0.714E+04  0.329E+03  0.372E+00  0.371E+01  0.150E+01
   743  0.715E+04  0.329E+03  0.355E+00  0.364E+01  0.140E+01
   744  0.715E+04  0.329E+03  0.351E+00  0.364E+01  0.140E+01
   745  0.716E+04  0.329E+03  0.350E+00  0.357E+01  0.130E+01
   746  0.717E+04  0.329E+03  0.347E+00  0.357E+01  0.130E+01
   747  0.718E+04  0.329E+03  0.346E+00  0.357E+01  0.130E+01
   748  0.719E+04  0.329E+03  0.343E+00  0.345E+01  0.133E+01
   749  0.720E+04  0.329E+03  0.338E+00  0.345E+01  0.133E+01
   750  0.720E+04  0.329E+03  0.333E+00  0.343E+01  0.139E+01
   751  0.721E+04  0.329E+03  0.330E+00  0.341E+01  0.145E+01
   752  0.722E+04  0.329E+03  0.329E+00  0.341E+01  0.145E+01
   753  0.723E+04  0.329E+03  0.324E+00  0.338E+01  0.150E+01
   754  0.724E+04  0.329E+03  0.317E+00  0.335E+01  0.156E+01
   755  0.725E+04  0.329E+03  0.309E+00  0.335E+01  0.156E+01
   756  0.726E+04  0.329E+03  0.300E+00  0.324E+01  0.158E+01
   757  0.727E+04  0.330E+03  0.293E+00  0.324E+01  0.158E+01
   758  0.728E+04  0.330E+03  0.284E+00  0.321E+01  0.163E+01
   759  0.729E+04  0.330E+03  0.278E+00  0.321E+01  0.163E+01
   760  0.730E+04  0.330E+03  0.277E+00  0.312E+01  0.159E+01
   761  0.730E+04  0.330E+03  0.278E+00  0.312E+01  0.159E+01
   762  0.731E+04  0.330E+03  0.277E+00  0.303E+01  0.154E+01
   763  0.732E+04  0.330E+03  0.276E+00  0.294E+01  0.150E+01
   764  0.733E+04  0.330E+03  0.277E+00  0.285E+01  0.145E+01
   765  0.734E+04  0.330E+03  0.280E+00  0.276E+01  0.141E+01
   766  0.735E+04  0.330E+03  0.285E+00  0.270E+01  0.132E+01
   767  0.736E+04  0.330E+03  0.286E+00  0.252E+01  0.123E+01
   768  0.737E+04  0.330E+03  0.283E+00  0.245E+01  0.114E+01
   769  0.738E+04  0.330E+03  0.284E+00  0.238E+01  0.106E+01
   770  0.739E+04  0.330E+03  0.297E+00  0.230E+01  0.977E+00
   771  0.740E+04  0.330E+03  0.325E+00  0.222E+01  0.899E+00
   772  0.741E+04  0.330E+03  0.358E+00  0.216E+01  0.787E+00
   773  0.742E+04  0.330E+03  0.391E+00  0.208E+01  0.716E+00
   774  0.743E+04  0.330E+03  0.410E+00  0.201E+01  0.614E+00
   775  0.744E+04  0.330E+03  0.420E+00  0.203E+01  0.544E+00
   776  0.745E+04  0.330E+03  0.424E+00  0.204E+01  0.508E+00
   777  0.746E+04  0.330E+03  0.424E+00  0.205E+01  0.472E+00
   778  0.747E+04  0.330E+03  0.426E+00  0.205E+01  0.437E+00
   779  0.748E+04  0.330E+03  0.434E+00  0.206E+01  0.401E+00
   780  0.748E+04  0.330E+03  0.451E+00  0.207E+01  0.365E+00
   781  0.749E+04  0.330E+03  0.465E+00  0.207E+01  0.365E+00
   782  0.750E+04  0.330E+03  0.468E+00  0.207E+01  0.365E+00
   783  0.751E+04  0.330E+03  0.466E+00  0.206E+01  0.401E+00
   784  0.752E+04  0.330E+03  0.461E+00  0.216E+01  0.420E+00
   785  0.753E+04  0.330E+03  0.454E+00  0.215E+01  0.457E+00
   786  0.754E+04  0.330E+03  0.447E+00  0.214E+01  0.495E+00
   787  0.755E+04  0.330E+03  0.435E+00  0.213E+01  0.532E+00
   788  0.756E+04  0.330E+03  0.419E+00  0.212E+01  0.606E+00
   789  0.757E+04  0.330E+03  0.402E+00  0.220E+01  0.672E+00
   790  0.758E+04  0.330E+03  0.397E+00  0.227E+01  0.781E+00
   791  0.759E+04  0.330E+03  0.393E+00  0.226E+01  0.821E+00
   792  0.760E+04  0.330E+03  0.386E+00  0.232E+01  0.937E+00
   793  0.761E+04  0.330E+03  0.379E+00  0.247E+01  0.110E+01
   794  0.762E+04  0.330E+03  0.367E+00  0.254E+01  0.118E+01
   795  0.763E+04  0.330E+03  0.341E+00  0.258E+01  0.132E+01
   796  0.765E+04  0.330E+03  0.320E+00  0.274E+01  0.146E+01
   797  0.766E+04  0.330E+03  0.325E+00  0.289E+01  0.160E+01
   798  0.767E+04  0.331E+03  0.340E+00  0.294E+01  0.170E+01
   799  0.768E+04  0.331E+03  0.324E+00  0.309E+01  0.185E+01
   800  0.769E+04  0.331E+03  0.272E+00  0.317E+01  0.191E+01
   801  0.770E+04  0.331E+03  0.229E+00  0.334E+01  0.201E+01
   802  0.771E+04  0.331E+03  0.210E+00  0.339E+01  0.212E+01
   803  0.772E+04  0.331E+03  0.208E+00  0.356E+01  0.223E+01
   804  0.773E+04  0.331E+03  0.210E+00  0.365E+01  0.228E+01
   805  0.773E+04  0.331E+03  0.211E+00  0.377E+01  0.227E+01
   806  0.774E+04  0.331E+03  0.209E+00  0.386E+01  0.232E+01
   807  0.775E+04  0.331E+03  0.205E+00  0.394E+01  0.237E+01
   808  0.776E+04  0.331E+03  0.201E+00  0.403E+01  0.242E+01
   809  0.777E+04  0.331E+03  0.198E+00  0.403E+01  0.242E+01
   810  0.778E+04  0.331E+03  0.195E+00  0.411E+01  0.247E+01
   811  0.779E+04  0.331E+03  0.193E+00  0.411E+01  0.247E+01
   812  0.780E+04  0.331E+03  0.191E+00  0.420E+01  0.252E+01
   813  0.780E+04  0.331E+03  0.190E+00  0.424E+01  0.245E+01
   814  0.781E+04  0.331E+03  0.189E+00  0.424E+01  0.245E+01
   815  0.782E+04  0.331E+03  0.187E+00  0.424E+01  0.245E+01
   816  0.783E+04  0.331E+03  0.186E+00  0.424E+01  0.245E+01
   817  0.784E+04  0.331E+03  0.186E+00  0.429E+01  0.238E+01
   818  0.785E+04  0.331E+03  0.186E+00  0.429E+01  0.238E+01
   819  0.786E+04  0.331E+03  0.186E+00  0.433E+01  0.230E+01
   820  0.787E+04  0.331E+03  0.186E+00  0.437E+01  0.222E+01
   821  0.787E+04  0.331E+03  0.186E+00  0.431E+01  0.210E+01
   822  0.788E+04  0.331E+03  0.185E+00  0.435E+01  0.203E+01
   823  0.789E+04  0.331E+03  0.185E+00  0.442E+01  0.188E+01
   824  0.790E+04  0.331E+03  0.184E+00  0.445E+01  0.180E+01
   825  0.791E+04  0.331E+03  0.184E+00  0.451E+01  0.164E+01
   826  0.792E+04  0.331E+03  0.184E+00  0.454E+01  0.156E+01
   827  0.793E+04  0.331E+03  0.183E+00  0.457E+01  0.148E+01
   828  0.794E+04  0.331E+03  0.182E+00  0.459E+01  0.140E+01
   829  0.795E+04  0.331E+03  0.180E+00  0.452E+01  0.129E+01
   830  0.796E+04  0.331E+03  0.177E+00  0.454E+01  0.122E+01
   831  0.796E+04  0.331E+03  0.171E+00  0.454E+01  0.122E+01
   832  0.797E+04  0.331E+03  0.164E+00  0.446E+01  0.111E+01
   833  0.798E+04  0.331E+03  0.158E+00  0.446E+01  0.111E+01
   834  0.799E+04  0.332E+03  0.154E+00  0.437E+01  0.109E+01
   835  0.800E+04  0.332E+03  0.152E+00  0.427E+01  0.106E+01
   836  0.801E+04  0.332E+03  0.151E+00  0.415E+01  0.111E+01
   837  0.802E+04  0.332E+03  0.149E+00  0.406E+01  0.109E+01
   838  0.803E+04  0.332E+03  0.148E+00  0.396E+01  0.106E+01
   839  0.804E+04  0.332E+03  0.147E+00  0.386E+01  0.103E+01
   840  0.805E+04  0.332E+03  0.145E+00  0.375E+01  0.108E+01
   841  0.805E+04  0.332E+03  0.144E+00  0.365E+01  0.105E+01
   842  0.806E+04  0.332E+03  0.145E+00  0.356E+01  0.102E+01
   843  0.807E+04  0.332E+03  0.147E+00  0.336E+01  0.965E+00
   844  0.808E+04  0.332E+03  0.150E+00  0.336E+01  0.965E+00
   845  0.809E+04  0.332E+03  0.156E+00  0.327E+01  0.937E+00
   846  0.810E+04  0.332E+03  0.165E+00  0.319E+01  0.854E+00
   847  0.811E+04  0.332E+03  0.177E+00  0.319E+01  0.854E+00
   848  0.812E+04  0.332E+03  0.190E+00  0.309E+01  0.828E+00
   849  0.813E+04  0.332E+03  0.199E+00  0.311E+01  0.774E+00
   850  0.814E+04  0.332E+03  0.208E+00  0.311E+01  0.774E+00
   851  0.814E+04  0.332E+03  0.224E+00  0.321E+01  0.742E+00
   852  0.815E+04  0.332E+03  0.235E+00  0.323E+01  0.686E+00
   853  0.816E+04  0.332E+03  0.233E+00  0.324E+01  0.630E+00
   854  0.817E+04  0.332E+03  0.230E+00  0.335E+01  0.590E+00
   855  0.818E+04  0.332E+03  0.242E+00  0.336E+01  0.532E+00
   856  0.819E+04  0.332E+03  0.264E+00  0.337E+01  0.473E+00
   857  0.820E+04  0.332E+03  0.286E+00  0.347E+01  0.427E+00
   858  0.821E+04  0.332E+03  0.298E+00  0.349E+01  0.305E+00
   859  0.822E+04  0.333E+03  0.299E+00  0.360E+01  0.188E+00
   860  0.823E+04  0.333E+03  0.295E+00  0.360E+01  0.126E+00
   861  0.824E+04  0.333E+03  0.292E+00  0.370E+01 -0.000E+00
   862  0.824E+04  0.333E+03  0.289E+00  0.370E+01 -0.129E+00
   863  0.826E+04  0.333E+03  0.286E+00  0.380E+01 -0.199E+00
   864  0.827E+04  0.333E+03  0.285E+00  0.379E+01 -0.331E+00
   865  0.828E+04  0.333E+03  0.287E+00  0.387E+01 -0.475E+00
   866  0.829E+04  0.333E+03  0.288E+00  0.396E+01 -0.557E+00
   867  0.830E+04  0.333E+03  0.288E+00  0.395E+01 -0.626E+00
   868  0.831E+04  0.333E+03  0.290E+00  0.404E+01 -0.712E+00
   869  0.832E+04  0.333E+03  0.294E+00  0.414E+01 -0.729E+00
   870  0.833E+04  0.333E+03  0.299E+00  0.412E+01 -0.801E+00
   871  0.833E+04  0.333E+03  0.303E+00  0.422E+01 -0.820E+00
   872  0.834E+04  0.333E+03  0.303E+00  0.422E+01 -0.820E+00
   873  0.835E+04  0.333E+03  0.303E+00  0.422E+01 -0.820E+00
   874  0.836E+04  0.333E+03  0.303E+00  0.422E+01 -0.820E+00
   875  0.837E+04  0.333E+03  0.301E+00  0.424E+01 -0.747E+00
   876  0.838E+04  0.333E+03  0.302E+00  0.424E+01 -0.747E+00
   877  0.839E+04  0.333E+03  0.303E+00  0.424E+01 -0.747E+00
   878  0.840E+04  0.333E+03  0.303E+00  0.415E+01 -0.657E+00
   879  0.841E+04  0.333E+03  0.303E+00  0.415E+01 -0.657E+00
   880  0.842E+04  0.333E+03  0.304E+00  0.415E+01 -0.657E+00
   881  0.843E+04  0.333E+03  0.303E+00  0.416E+01 -0.585E+00
   882  0.843E+04  0.333E+03  0.303E+00  0.416E+01 -0.585E+00
   883  0.844E+04  0.333E+03  0.303E+00  0.416E+01 -0.585E+00
   884  0.845E+04  0.333E+03  0.303E+00  0.416E+01 -0.585E+00
   885  0.846E+04  0.333E+03  0.303E+00  0.416E+01 -0.585E+00
   886  0.847E+04  0.333E+03  0.304E+00  0.417E+01 -0.512E+00
   887  0.848E+04  0.333E+03  0.306E+00  0.417E+01 -0.512E+00
   888  0.849E+04  0.333E+03  0.305E+00  0.417E+01 -0.512E+00
   889  0.850E+04  0.333E+03  0.304E+00  0.417E+01 -0.512E+00
   890  0.851E+04  0.333E+03  0.303E+00  0.427E+01 -0.524E+00
   891  0.852E+04  0.333E+03  0.304E+00  0.428E+01 -0.449E+00
   892  0.852E+04  0.333E+03  0.305E+00  0.428E+01 -0.449E+00
   893  0.853E+04  0.333E+03  0.305E+00  0.418E+01 -0.439E+00
   894  0.854E+04  0.333E+03  0.305E+00  0.418E+01 -0.366E+00
   895  0.855E+04  0.333E+03  0.304E+00  0.418E+01 -0.366E+00
   896  0.856E+04  0.333E+03  0.303E+00  0.418E+01 -0.366E+00
   897  0.857E+04  0.333E+03  0.304E+00  0.409E+01 -0.286E+00
   898  0.858E+04  0.333E+03  0.305E+00  0.409E+01 -0.286E+00
   899  0.858E+04  0.333E+03  0.305E+00  0.409E+01 -0.215E+00
   900  0.859E+04  0.333E+03  0.305E+00  0.399E+01 -0.209E+00
   901  0.860E+04  0.333E+03  0.305E+00  0.399E+01 -0.209E+00
   902  0.861E+04  0.333E+03  0.305E+00  0.399E+01 -0.209E+00
   903  0.862E+04  0.333E+03  0.305E+00  0.400E+01 -0.140E+00
   904  0.863E+04  0.333E+03  0.303E+00  0.400E+01 -0.140E+00
   905  0.864E+04  0.333E+03  0.301E+00  0.390E+01 -0.136E+00
   906  0.865E+04  0.333E+03  0.300E+00  0.390E+01 -0.136E+00
   907  0.865E+04  0.333E+03  0.300E+00  0.390E+01 -0.136E+00
   908  0.866E+04  0.333E+03  0.300E+00  0.390E+01 -0.136E+00
   909  0.867E+04  0.333E+03  0.300E+00  0.390E+01 -0.136E+00
   910  0.868E+04  0.333E+03  0.297E+00  0.390E+01 -0.136E+00
   911  0.869E+04  0.333E+03  0.294E+00  0.390E+01 -0.136E+00
   912  0.870E+04  0.333E+03  0.292E+00  0.380E+01 -0.133E+00
   913  0.870E+04  0.333E+03  0.291E+00  0.380E+01 -0.133E+00
   914  0.871E+04  0.333E+03  0.286E+00  0.369E+01 -0.194E+00
   915  0.872E+04  0.333E+03  0.280E+00  0.369E+01 -0.258E+00
   916  0.873E+04  0.333E+03  0.275E+00  0.359E+01 -0.314E+00
   917  0.874E+04  0.333E+03  0.271E+00  0.357E+01 -0.439E+00
   918  0.875E+04  0.333E+03  0.268E+00  0.347E+01 -0.487E+00
   919  0.876E+04  0.333E+03  0.261E+00  0.344E+01 -0.668E+00
   920  0.877E+04  0.333E+03  0.246E+00  0.331E+01 -0.765E+00
   921  0.878E+04  0.333E+03  0.222E+00  0.327E+01 -0.937E+00
   922  0.879E+04  0.333E+03  0.195E+00  0.321E+01 -0.111E+01
   923  0.880E+04  0.333E+03  0.179E+00  0.313E+01 -0.133E+01
   924  0.881E+04  0.333E+03  0.171E+00  0.303E+01 -0.154E+01
   925  0.882E+04  0.333E+03  0.162E+00  0.303E+01 -0.175E+01
   926  0.883E+04  0.333E+03  0.152E+00  0.302E+01 -0.196E+01
   927  0.884E+04  0.334E+03  0.147E+00  0.295E+01 -0.223E+01
   928  0.885E+04  0.334E+03  0.151E+00  0.291E+01 -0.244E+01
   929  0.886E+04  0.334E+03  0.155E+00  0.290E+01 -0.261E+01
   930  0.887E+04  0.333E+03  0.157E+00  0.288E+01 -0.278E+01
   931  0.888E+04  0.334E+03  0.155E+00  0.285E+01 -0.295E+01
   932  0.889E+04  0.334E+03  0.141E+00  0.281E+01 -0.312E+01
   933  0.890E+04  0.334E+03  0.120E+00  0.276E+01 -0.317E+01
   934  0.891E+04  0.334E+03  0.103E+00  0.270E+01 -0.322E+01
   935  0.892E+04  0.334E+03  0.990E-01  0.270E+01 -0.322E+01
   936  0.893E+04  0.334E+03  0.980E-01  0.270E+01 -0.322E+01
   937  0.894E+04  0.334E+03  0.940E-01  0.264E+01 -0.326E+01
   938  0.895E+04  0.334E+03  0.910E-01  0.258E+01 -0.319E+01
   939  0.895E+04  0.334E+03  0.890E-01  0.263E+01 -0.314E+01
   940  0.896E+04  0.334E+03  0.900E-01  0.257E+01 -0.306E+01
   941  0.897E+04  0.334E+03  0.910E-01  0.245E+01 -0.303E+01
   942  0.898E+04  0.334E+03  0.920E-01  0.245E+01 -0.303E+01
   943  0.899E+04  0.334E+03  0.910E-01  0.234E+01 -0.299E+01
   944  0.899E+04  0.334E+03  0.870E-01  0.223E+01 -0.295E+01
   945  0.900E+04  0.335E+03  0.830E-01  0.207E+01 -0.295E+01
   946  0.901E+04  0.335E+03  0.800E-01  0.196E+01 -0.302E+01
   947  0.902E+04  0.335E+03  0.760E-01  0.185E+01 -0.309E+01
   948  0.903E+04  0.335E+03  0.700E-01  0.169E+01 -0.318E+01
   949  0.904E+04  0.335E+03  0.650E-01  0.152E+01 -0.326E+01
   950  0.905E+04  0.335E+03  0.610E-01  0.135E+01 -0.334E+01
   951  0.906E+04  0.335E+03  0.600E-01  0.121E+01 -0.350E+01
   952  0.907E+04  0.335E+03  0.610E-01  0.111E+01 -0.363E+01
   953  0.908E+04  0.335E+03  0.610E-01  0.101E+01 -0.377E+01
   954  0.909E+04  0.335E+03  0.620E-01  0.968E+00 -0.388E+01
   955  0.910E+04  0.335E+03  0.630E-01  0.900E+00 -0.390E+01
   956  0.911E+04  0.335E+03  0.630E-01  0.852E+00 -0.401E+01
   957  0.911E+04  0.335E+03  0.630E-01  0.873E+00 -0.411E+01
   958  0.912E+04  0.335E+03  0.630E-01  0.873E+00 -0.411E+01
   959  0.913E+04  0.335E+03  0.630E-01  0.873E+00 -0.411E+01
   960  0.914E+04  0.335E+03  0.630E-01  0.945E+00 -0.409E+01
   961  0.915E+04  0.335E+03  0.630E-01  0.945E+00 -0.409E+01
   962  0.916E+04  0.335E+03  0.620E-01  0.102E+01 -0.407E+01
   963  0.917E+04  0.335E+03  0.620E-01  0.102E+01 -0.407E+01
   964  0.918E+04  0.335E+03  0.610E-01  0.992E+00 -0.398E+01
   965  0.918E+04  0.335E+03  0.600E-01  0.992E+00 -0.398E+01
   966  0.919E+04  0.335E+03  0.600E-01  0.968E+00 -0.388E+01
   967  0.920E+04  0.335E+03  0.610E-01  0.900E+00 -0.390E+01
   968  0.921E+04  0.335E+03  0.620E-01  0.877E+00 -0.380E+01
   969  0.922E+04  0.335E+03  0.620E-01  0.811E+00 -0.382E+01
   970  0.923E+04  0.335E+03  0.620E-01  0.725E+00 -0.373E+01
   971  0.924E+04  0.335E+03  0.630E-01  0.660E+00 -0.374E+01
   972  0.924E+04  0.335E+03  0.630E-01  0.529E+00 -0.376E+01
   973  0.925E+04  0.335E+03  0.650E-01  0.451E+00 -0.367E+01
   974  0.926E+04  0.335E+03  0.670E-01  0.387E+00 -0.368E+01
   975  0.927E+04  0.335E+03  0.700E-01  0.258E+00 -0.369E+01
   976  0.928E+04  0.336E+03  0.730E-01  0.199E+00 -0.380E+01
   977  0.928E+04  0.336E+03  0.800E-01  0.133E+00 -0.380E+01
   978  0.929E+04  0.336E+03  0.880E-01  0.660E-01 -0.380E+01
   979  0.930E+04  0.336E+03  0.960E-01 -0.000E+00 -0.390E+01
   980  0.931E+04  0.336E+03  0.104E+00 -0.700E-01 -0.400E+01
   981  0.932E+04  0.336E+03  0.110E+00 -0.700E-01 -0.400E+01
   982  0.933E+04  0.336E+03  0.111E+00 -0.143E+00 -0.410E+01
   983  0.934E+04  0.336E+03  0.109E+00 -0.147E+00 -0.420E+01
   984  0.934E+04  0.336E+03  0.112E+00 -0.147E+00 -0.420E+01
   985  0.935E+04  0.336E+03  0.122E+00 -0.225E+00 -0.429E+01
   986  0.936E+04  0.336E+03  0.128E+00 -0.230E+00 -0.439E+01
   987  0.937E+04  0.336E+03  0.127E+00 -0.230E+00 -0.439E+01
   988  0.938E+04  0.336E+03  0.123E+00 -0.236E+00 -0.449E+01
   989  0.939E+04  0.336E+03  0.118E+00 -0.236E+00 -0.449E+01
   990  0.940E+04  0.336E+03  0.113E+00 -0.236E+00 -0.449E+01
   991  0.941E+04  0.336E+03  0.110E+00 -0.157E+00 -0.450E+01
   992  0.941E+04  0.336E+03  0.113E+00 -0.157E+00 -0.450E+01
   993  0.942E+04  0.336E+03  0.126E+00 -0.161E+00 -0.460E+01
   994  0.943E+04  0.336E+03  0.141E+00 -0.161E+00 -0.460E+01
   995  0.944E+04  0.336E+03  0.147E+00 -0.161E+00 -0.460E+01
   996  0.945E+04  0.336E+03  0.145E+00 -0.161E+00 -0.460E+01
   997  0.946E+04  0.336E+03  0.143E+00 -0.161E+00 -0.460E+01
   998  0.946E+04  0.336E+03  0.143E+00 -0.241E+00 -0.459E+01
   999  0.947E+04  0.336E+03  0.145E+00 -0.246E+00 -0.469E+01
  1000  0.948E+04  0.336E+03  0.145E+00 -0.246E+00 -0.469E+01
  1001  0.949E+04  0.336E+03  0.145E+00 -0.251E+00 -0.479E+01
  1002  0.950E+04  0.336E+03  0.145E+00 -0.256E+00 -0.489E+01
  1003  0.951E+04  0.336E+03  0.145E+00 -0.256E+00 -0.489E+01
  1004  0.952E+04  0.336E+03  0.145E+00 -0.262E+00 -0.499E+01
  1005  0.953E+04  0.336E+03  0.145E+00 -0.262E+00 -0.499E+01
  1006  0.953E+04  0.336E+03  0.145E+00 -0.356E+00 -0.509E+01
  1007  0.954E+04  0.336E+03  0.145E+00 -0.356E+00 -0.509E+01
  1008  0.955E+04  0.336E+03  0.145E+00 -0.363E+00 -0.519E+01
  1009  0.956E+04  0.336E+03  0.145E+00 -0.363E+00 -0.519E+01
  1010  0.957E+04  0.336E+03  0.144E+00 -0.370E+00 -0.529E+01
  1011  0.957E+04  0.336E+03  0.145E+00 -0.370E+00 -0.529E+01
  1012  0.958E+04  0.336E+03  0.145E+00 -0.277E+00 -0.529E+01
  1013  0.959E+04  0.336E+03  0.145E+00 -0.277E+00 -0.529E+01
  1014  0.960E+04  0.336E+03  0.145E+00 -0.277E+00 -0.529E+01
  1015  0.961E+04  0.336E+03  0.146E+00 -0.277E+00 -0.529E+01
  1016  0.962E+04  0.336E+03  0.146E+00 -0.277E+00 -0.529E+01
  1017  0.963E+04  0.336E+03  0.147E+00 -0.185E+00 -0.530E+01
  1018  0.964E+04  0.336E+03  0.147E+00 -0.185E+00 -0.530E+01
  1019  0.964E+04  0.336E+03  0.147E+00 -0.185E+00 -0.530E+01
  1020  0.965E+04  0.336E+03  0.146E+00 -0.920E-01 -0.530E+01
  1021  0.966E+04  0.336E+03  0.146E+00 -0.920E-01 -0.530E+01
  1022  0.967E+04  0.336E+03  0.146E+00 -0.920E-01 -0.530E+01
  1023  0.968E+04  0.336E+03  0.146E+00 -0.000E+00 -0.530E+01
  1024  0.968E+04  0.336E+03  0.146E+00 -0.000E+00 -0.530E+01
  1025  0.969E+04  0.336E+03  0.145E+00 -0.000E+00 -0.530E+01
  1026  0.970E+04  0.336E+03  0.145E+00  0.940E-01 -0.540E+01
  1027  0.971E+04  0.336E+03  0.145E+00  0.940E-01 -0.540E+01
  1028  0.972E+04  0.336E+03  0.144E+00  0.960E-01 -0.550E+01
  1029  0.973E+04  0.336E+03  0.144E+00  0.195E+00 -0.560E+01
  1030  0.974E+04  0.336E+03  0.143E+00  0.298E+00 -0.569E+01
  1031  0.975E+04  0.336E+03  0.143E+00  0.304E+00 -0.579E+01
  1032  0.975E+04  0.336E+03  0.143E+00  0.412E+00 -0.589E+01
  1033  0.976E+04  0.336E+03  0.143E+00  0.426E+00 -0.609E+01
  1034  0.977E+04  0.336E+03  0.142E+00  0.549E+00 -0.628E+01
  1035  0.978E+04  0.336E+03  0.141E+00  0.669E+00 -0.636E+01
  1036  0.979E+04  0.336E+03  0.140E+00  0.804E+00 -0.655E+01
  1037  0.980E+04  0.336E+03  0.139E+00  0.829E+00 -0.675E+01
  1038  0.981E+04  0.336E+03  0.138E+00  0.974E+00 -0.693E+01
  1039  0.982E+04  0.336E+03  0.137E+00  0.100E+01 -0.713E+01
  1040  0.983E+04  0.336E+03  0.134E+00  0.114E+01 -0.721E+01
  1041  0.984E+04  0.337E+03  0.132E+00  0.117E+01 -0.741E+01
  1042  0.984E+04  0.337E+03  0.129E+00  0.134E+01 -0.758E+01
  1043  0.985E+04  0.337E+03  0.127E+00  0.135E+01 -0.768E+01
  1044  0.986E+04  0.337E+03  0.126E+00  0.139E+01 -0.788E+01
  1045  0.987E+04  0.337E+03  0.125E+00  0.157E+01 -0.805E+01
  1046  0.988E+04  0.337E+03  0.125E+00  0.158E+01 -0.815E+01
  1047  0.989E+04  0.337E+03  0.124E+00  0.162E+01 -0.834E+01
  1048  0.990E+04  0.337E+03  0.124E+00  0.179E+01 -0.841E+01
  1049  0.991E+04  0.337E+03  0.124E+00  0.183E+01 -0.861E+01
  1050  0.991E+04  0.337E+03  0.124E+00  0.187E+01 -0.880E+01
  1051  0.992E+04  0.337E+03  0.124E+00  0.191E+01 -0.900E+01
  1052  0.994E+04  0.337E+03  0.125E+00  0.212E+01 -0.916E+01
  1053  0.995E+04  0.337E+03  0.126E+00  0.216E+01 -0.935E+01
  1054  0.996E+04  0.337E+03  0.127E+00  0.223E+01 -0.965E+01
  1055  0.996E+04  0.337E+03  0.129E+00  0.227E+01 -0.984E+01
  1056  0.997E+04  0.337E+03  0.132E+00  0.249E+01 -0.999E+01
  1057  0.998E+04  0.337E+03  0.135E+00  0.254E+01 -0.102E+02
  1058  0.999E+04  0.337E+03  0.136E+00  0.259E+01 -0.104E+02
  1059  0.100E+05  0.337E+03  0.136E+00  0.264E+01 -0.106E+02
  1060  0.100E+05  0.337E+03  0.140E+00  0.268E+01 -0.108E+02
  1061  0.100E+05  0.337E+03  0.151E+00  0.271E+01 -0.109E+02
  1062  0.100E+05  0.337E+03  0.165E+00  0.273E+01 -0.110E+02
  1063  0.100E+05  0.337E+03  0.183E+00  0.295E+01 -0.110E+02
  1064  0.101E+05  0.337E+03  0.207E+00  0.298E+01 -0.111E+02
  1065  0.101E+05  0.337E+03  0.225E+00  0.300E+01 -0.112E+02
  1066  0.101E+05  0.337E+03  0.228E+00  0.300E+01 -0.112E+02
  1067  0.101E+05  0.337E+03  0.227E+00  0.281E+01 -0.113E+02
  1068  0.101E+05  0.337E+03  0.228E+00  0.283E+01 -0.114E+02
  1069  0.101E+05  0.337E+03  0.233E+00  0.283E+01 -0.114E+02
  1070  0.101E+05  0.337E+03  0.238E+00  0.283E+01 -0.114E+02
  1071  0.101E+05  0.337E+03  0.237E+00  0.283E+01 -0.114E+02
  1072  0.101E+05  0.338E+03  0.234E+00  0.286E+01 -0.114E+02
  1073  0.101E+05  0.338E+03  0.231E+00  0.286E+01 -0.114E+02
  1074  0.101E+05  0.338E+03  0.231E+00  0.288E+01 -0.115E+02
  1075  0.101E+05  0.338E+03  0.234E+00  0.288E+01 -0.115E+02
  1076  0.102E+05  0.338E+03  0.239E+00  0.290E+01 -0.116E+02
  1077  0.102E+05  0.338E+03  0.241E+00  0.293E+01 -0.117E+02
  1078  0.102E+05  0.338E+03  0.242E+00  0.293E+01 -0.117E+02
  1079  0.102E+05  0.338E+03  0.243E+00  0.295E+01 -0.118E+02
  1080  0.102E+05  0.338E+03  0.242E+00  0.298E+01 -0.119E+02
  1081  0.102E+05  0.338E+03  0.240E+00  0.298E+01 -0.119E+02
  1082  0.102E+05  0.338E+03  0.239E+00  0.300E+01 -0.120E+02
  1083  0.102E+05  0.338E+03  0.239E+00  0.302E+01 -0.121E+02
  1084  0.102E+05  0.338E+03  0.237E+00  0.302E+01 -0.121E+02
  1085  0.102E+05  0.338E+03  0.236E+00  0.305E+01 -0.122E+02
  1086  0.102E+05  0.338E+03  0.236E+00  0.305E+01 -0.122E+02
  1087  0.103E+05  0.338E+03  0.236E+00  0.307E+01 -0.123E+02
  1088  0.103E+05  0.338E+03  0.237E+00  0.307E+01 -0.123E+02
  1089  0.103E+05  0.338E+03  0.237E+00  0.331E+01 -0.124E+02
  1090  0.103E+05  0.338E+03  0.236E+00  0.331E+01 -0.124E+02
  1091  0.103E+05  0.338E+03  0.235E+00  0.334E+01 -0.125E+02
  1092  0.103E+05  0.338E+03  0.233E+00  0.334E+01 -0.125E+02
  1093  0.103E+05  0.338E+03  0.230E+00  0.337E+01 -0.126E+02
  1094  0.103E+05  0.338E+03  0.227E+00  0.337E+01 -0.126E+02
  1095  0.103E+05  0.338E+03  0.223E+00  0.339E+01 -0.127E+02
  1096  0.103E+05  0.338E+03  0.219E+00  0.342E+01 -0.128E+02
  1097  0.103E+05  0.338E+03  0.216E+00  0.364E+01 -0.127E+02
  1098  0.104E+05  0.338E+03  0.214E+00  0.367E+01 -0.128E+02
  1099  0.104E+05  0.338E+03  0.212E+00  0.367E+01 -0.128E+02
  1100  0.104E+05  0.338E+03  0.211E+00  0.369E+01 -0.129E+02
  1101  0.104E+05  0.339E+03  0.209E+00  0.369E+01 -0.129E+02
  1102  0.104E+05  0.339E+03  0.207E+00  0.369E+01 -0.129E+02
  1103  0.104E+05  0.339E+03  0.203E+00  0.372E+01 -0.130E+02
  1104  0.104E+05  0.339E+03  0.200E+00  0.372E+01 -0.130E+02
  1105  0.104E+05  0.339E+03  0.198E+00  0.372E+01 -0.130E+02
  1106  0.104E+05  0.339E+03  0.197E+00  0.372E+01 -0.130E+02
  1107  0.104E+05  0.339E+03  0.197E+00  0.372E+01 -0.130E+02
  1108  0.104E+05  0.339E+03  0.197E+00  0.372E+01 -0.130E+02
  1109  0.105E+05  0.339E+03  0.198E+00  0.375E+01 -0.131E+02
  1110  0.105E+05  0.339E+03  0.199E+00  0.398E+01 -0.130E+02
  1111  0.105E+05  0.339E+03  0.199E+00  0.398E+01 -0.130E+02
  1112  0.105E+05  0.339E+03  0.198E+00  0.398E+01 -0.130E+02
  1113  0.105E+05  0.339E+03  0.198E+00  0.401E+01 -0.131E+02
  1114  0.105E+05  0.339E+03  0.197E+00  0.401E+01 -0.131E+02
  1115  0.105E+05  0.339E+03  0.195E+00  0.426E+01 -0.131E+02
  1116  0.105E+05  0.339E+03  0.192E+00  0.430E+01 -0.132E+02
  1117  0.105E+05  0.339E+03  0.191E+00  0.433E+01 -0.133E+02
  1118  0.105E+05  0.339E+03  0.191E+00  0.459E+01 -0.133E+02
  1119  0.105E+05  0.339E+03  0.191E+00  0.462E+01 -0.134E+02
  1120  0.106E+05  0.339E+03  0.191E+00  0.493E+01 -0.135E+02
  1121  0.106E+05  0.339E+03  0.192E+00  0.496E+01 -0.136E+02
  1122  0.106E+05  0.340E+03  0.193E+00  0.527E+01 -0.137E+02
  1123  0.106E+05  0.340E+03  0.193E+00  0.530E+01 -0.138E+02
  1124  0.106E+05  0.340E+03  0.192E+00  0.562E+01 -0.139E+02
  1125  0.106E+05  0.340E+03  0.192E+00  0.566E+01 -0.140E+02
  1126  0.106E+05  0.340E+03  0.192E+00  0.594E+01 -0.140E+02
  1127  0.106E+05  0.340E+03  0.193E+00  0.602E+01 -0.142E+02
  1128  0.107E+05  0.340E+03  0.194E+00  0.630E+01 -0.142E+02
  1129  0.107E+05  0.340E+03  0.194E+00  0.634E+01 -0.143E+02
  1130  0.107E+05  0.340E+03  0.194E+00  0.664E+01 -0.142E+02
  1131  0.107E+05  0.340E+03  0.193E+00  0.664E+01 -0.142E+02
  1132  0.107E+05  0.340E+03  0.192E+00  0.668E+01 -0.143E+02
  1133  0.107E+05  0.340E+03  0.192E+00  0.693E+01 -0.142E+02
  1134  0.107E+05  0.340E+03  0.191E+00  0.697E+01 -0.143E+02
  1135  0.107E+05  0.340E+03  0.189E+00  0.697E+01 -0.143E+02
  1136  0.107E+05  0.340E+03  0.187E+00  0.722E+01 -0.142E+02
  1137  0.107E+05  0.340E+03  0.184E+00  0.722E+01 -0.142E+02
  1138  0.108E+05  0.340E+03  0.181E+00  0.722E+01 -0.142E+02
  1139  0.108E+05  0.340E+03  0.177E+00  0.722E+01 -0.142E+02
  1140  0.108E+05  0.340E+03  0.173E+00  0.726E+01 -0.143E+02
  1141  0.108E+05  0.340E+03  0.169E+00  0.726E+01 -0.143E+02
  1142  0.108E+05  0.340E+03  0.164E+00  0.722E+01 -0.142E+02
  1143  0.108E+05  0.340E+03  0.159E+00  0.722E+01 -0.142E+02
  1144  0.108E+05  0.340E+03  0.156E+00  0.722E+01 -0.142E+02
  1145  0.108E+05  0.340E+03  0.153E+00  0.722E+01 -0.142E+02
  1146  0.108E+05  0.340E+03  0.150E+00  0.747E+01 -0.140E+02
  1147  0.108E+05  0.340E+03  0.148E+00  0.747E+01 -0.140E+02
  1148  0.109E+05  0.340E+03  0.146E+00  0.742E+01 -0.140E+02
  1149  0.109E+05  0.340E+03  0.145E+00  0.742E+01 -0.140E+02
  1150  0.109E+05  0.340E+03  0.144E+00  0.742E+01 -0.140E+02
  1151  0.109E+05  0.340E+03  0.142E+00  0.742E+01 -0.140E+02
  1152  0.109E+05  0.340E+03  0.140E+00  0.742E+01 -0.140E+02
  1153  0.109E+05  0.340E+03  0.137E+00  0.737E+01 -0.139E+02
  1154  0.109E+05  0.340E+03  0.135E+00  0.761E+01 -0.137E+02
  1155  0.109E+05  0.340E+03  0.134E+00  0.761E+01 -0.137E+02
  1156  0.109E+05  0.340E+03  0.133E+00  0.761E+01 -0.137E+02
  1157  0.109E+05  0.340E+03  0.132E+00  0.761E+01 -0.137E+02
  1158  0.109E+05  0.340E+03  0.131E+00  0.761E+01 -0.137E+02
  1159  0.110E+05  0.340E+03  0.131E+00  0.780E+01 -0.135E+02
  1160  0.110E+05  0.340E+03  0.129E+00  0.780E+01 -0.135E+02
  1161  0.110E+05  0.340E+03  0.128E+00  0.780E+01 -0.135E+02
  1162  0.110E+05  0.340E+03  0.126E+00  0.780E+01 -0.135E+02
  1163  0.110E+05  0.340E+03  0.124E+00  0.798E+01 -0.133E+02
  1164  0.110E+05  0.340E+03  0.122E+00  0.798E+01 -0.133E+02
  1165  0.110E+05  0.340E+03  0.119E+00  0.798E+01 -0.133E+02
  1166  0.110E+05  0.340E+03  0.117E+00  0.793E+01 -0.132E+02
  1167  0.110E+05  0.340E+03  0.116E+00  0.793E+01 -0.132E+02
  1168  0.110E+05  0.340E+03  0.114E+00  0.793E+01 -0.132E+02
  1169  0.111E+05  0.340E+03  0.112E+00  0.788E+01 -0.131E+02
  1170  0.111E+05  0.340E+03  0.109E+00  0.788E+01 -0.131E+02
  1171  0.111E+05  0.340E+03  0.107E+00  0.783E+01 -0.130E+02
  1172  0.111E+05  0.340E+03  0.105E+00  0.783E+01 -0.130E+02
  1173  0.111E+05  0.340E+03  0.104E+00  0.778E+01 -0.129E+02
  1174  0.111E+05  0.340E+03  0.104E+00  0.778E+01 -0.129E+02
  1175  0.111E+05  0.340E+03  0.104E+00  0.773E+01 -0.129E+02
  1176  0.111E+05  0.340E+03  0.103E+00  0.745E+01 -0.129E+02
  1177  0.111E+05  0.340E+03  0.103E+00  0.745E+01 -0.129E+02
  1178  0.111E+05  0.340E+03  0.102E+00  0.740E+01 -0.128E+02
  1179  0.111E+05  0.340E+03  0.101E+00  0.740E+01 -0.128E+02
  1180  0.112E+05  0.340E+03  0.100E+00  0.735E+01 -0.127E+02
  1181  0.112E+05  0.340E+03  0.100E+00  0.735E+01 -0.127E+02
  1182  0.112E+05  0.340E+03  0.990E-01  0.735E+01 -0.127E+02
  1183  0.112E+05  0.340E+03  0.980E-01  0.708E+01 -0.128E+02
  1184  0.112E+05  0.340E+03  0.980E-01  0.708E+01 -0.128E+02
  1185  0.112E+05  0.340E+03  0.980E-01  0.708E+01 -0.128E+02
  1186  0.112E+05  0.340E+03  0.980E-01  0.703E+01 -0.127E+02
  1187  0.112E+05  0.340E+03  0.980E-01  0.703E+01 -0.127E+02
  1188  0.112E+05  0.340E+03  0.980E-01  0.681E+01 -0.128E+02
  1189  0.112E+05  0.340E+03  0.980E-01  0.681E+01 -0.128E+02
  1190  0.113E+05  0.340E+03  0.980E-01  0.676E+01 -0.127E+02
  1191  0.113E+05  0.340E+03  0.980E-01  0.654E+01 -0.128E+02
  1192  0.113E+05  0.340E+03  0.980E-01  0.654E+01 -0.128E+02
  1193  0.113E+05  0.340E+03  0.980E-01  0.654E+01 -0.128E+02
  1194  0.113E+05  0.340E+03  0.970E-01  0.631E+01 -0.129E+02
  1195  0.113E+05  0.340E+03  0.950E-01  0.627E+01 -0.129E+02
  1196  0.113E+05  0.340E+03  0.920E-01  0.604E+01 -0.130E+02
  1197  0.113E+05  0.340E+03  0.890E-01  0.586E+01 -0.132E+02
  1198  0.113E+05  0.341E+03  0.870E-01  0.586E+01 -0.132E+02
  1199  0.113E+05  0.341E+03  0.850E-01  0.563E+01 -0.133E+02
  1200  0.114E+05  0.341E+03  0.850E-01  0.563E+01 -0.133E+02
  1201  0.114E+05  0.341E+03  0.850E-01  0.543E+01 -0.134E+02
  1202  0.114E+05  0.341E+03  0.850E-01  0.543E+01 -0.134E+02
  1203  0.114E+05  0.341E+03  0.850E-01  0.520E+01 -0.135E+02
  1204  0.114E+05  0.341E+03  0.850E-01  0.520E+01 -0.135E+02
  1205  0.114E+05  0.341E+03  0.850E-01  0.523E+01 -0.136E+02
  1206  0.114E+05  0.341E+03  0.840E-01  0.499E+01 -0.137E+02
  1207  0.114E+05  0.341E+03  0.840E-01  0.499E+01 -0.137E+02
  1208  0.114E+05  0.341E+03  0.830E-01  0.475E+01 -0.138E+02
  1209  0.115E+05  0.341E+03  0.820E-01  0.475E+01 -0.138E+02
  1210  0.115E+05  0.341E+03  0.810E-01  0.479E+01 -0.139E+02
  1211  0.115E+05  0.341E+03  0.790E-01  0.454E+01 -0.140E+02
  1212  0.115E+05  0.341E+03  0.790E-01  0.454E+01 -0.140E+02
  1213  0.115E+05  0.341E+03  0.780E-01  0.457E+01 -0.141E+02
  1214  0.115E+05  0.341E+03  0.780E-01  0.457E+01 -0.141E+02
  1215  0.115E+05  0.341E+03  0.780E-01  0.436E+01 -0.142E+02
  1216  0.115E+05  0.341E+03  0.770E-01  0.436E+01 -0.142E+02
  1217  0.115E+05  0.341E+03  0.760E-01  0.439E+01 -0.143E+02
  1218  0.115E+05  0.341E+03  0.750E-01  0.439E+01 -0.143E+02
  1219  0.116E+05  0.341E+03  0.740E-01  0.441E+01 -0.144E+02
  1220  0.116E+05  0.341E+03  0.720E-01  0.441E+01 -0.144E+02
  1221  0.116E+05  0.341E+03  0.700E-01  0.444E+01 -0.145E+02
  1222  0.116E+05  0.341E+03  0.690E-01  0.444E+01 -0.145E+02
  1223  0.116E+05  0.341E+03  0.670E-01  0.444E+01 -0.145E+02
  1224  0.116E+05  0.341E+03  0.650E-01  0.419E+01 -0.146E+02
  1225  0.116E+05  0.341E+03  0.640E-01  0.419E+01 -0.146E+02
  1226  0.116E+05  0.341E+03  0.640E-01  0.419E+01 -0.146E+02
  1227  0.116E+05  0.341E+03  0.630E-01  0.419E+01 -0.146E+02
  1228  0.116E+05  0.341E+03  0.630E-01  0.393E+01 -0.147E+02
  1229  0.117E+05  0.341E+03  0.630E-01  0.393E+01 -0.147E+02
  1230  0.117E+05  0.341E+03  0.620E-01  0.393E+01 -0.147E+02
  1231  0.117E+05  0.341E+03  0.610E-01  0.393E+01 -0.147E+02
  1232  0.117E+05  0.341E+03  0.610E-01  0.368E+01 -0.147E+02
  1233  0.117E+05  0.341E+03  0.600E-01  0.368E+01 -0.147E+02
  1234  0.117E+05  0.341E+03  0.600E-01  0.368E+01 -0.147E+02
  1235  0.117E+05  0.341E+03  0.590E-01  0.368E+01 -0.147E+02
  1236  0.117E+05  0.341E+03  0.590E-01  0.342E+01 -0.148E+02
  1237  0.117E+05  0.341E+03  0.580E-01  0.342E+01 -0.148E+02
  1238  0.117E+05  0.341E+03  0.570E-01  0.344E+01 -0.149E+02
  1239  0.117E+05  0.341E+03  0.570E-01  0.344E+01 -0.149E+02
  1240  0.118E+05  0.341E+03  0.560E-01  0.344E+01 -0.149E+02
  1241  0.118E+05  0.341E+03  0.560E-01  0.342E+01 -0.148E+02
  1242  0.118E+05  0.341E+03  0.550E-01  0.342E+01 -0.148E+02
  1243  0.118E+05  0.341E+03  0.550E-01  0.342E+01 -0.148E+02
  1244  0.118E+05  0.342E+03  0.540E-01  0.340E+01 -0.147E+02
  1245  0.118E+05  0.341E+03  0.530E-01  0.337E+01 -0.146E+02
  1246  0.118E+05  0.342E+03  0.530E-01  0.337E+01 -0.146E+02
  1247  0.118E+05  0.342E+03  0.530E-01  0.335E+01 -0.145E+02
  1248  0.118E+05  0.342E+03  0.520E-01  0.333E+01 -0.144E+02
  1249  0.118E+05  0.342E+03  0.520E-01  0.331E+01 -0.143E+02
  1250  0.118E+05  0.342E+03  0.520E-01  0.353E+01 -0.142E+02
  1251  0.119E+05  0.342E+03  0.520E-01  0.351E+01 -0.141E+02
  1252  0.119E+05  0.342E+03  0.520E-01  0.351E+01 -0.141E+02
  1253  0.119E+05  0.342E+03  0.510E-01  0.348E+01 -0.140E+02
  1254  0.119E+05  0.342E+03  0.510E-01  0.348E+01 -0.140E+02
  1255  0.119E+05  0.341E+03  0.500E-01  0.373E+01 -0.139E+02
  1256  0.119E+05  0.342E+03  0.490E-01  0.373E+01 -0.139E+02
  1257  0.119E+05  0.342E+03  0.490E-01  0.373E+01 -0.139E+02
  1258  0.119E+05  0.342E+03  0.490E-01  0.373E+01 -0.139E+02
  1259  0.119E+05  0.342E+03  0.490E-01  0.375E+01 -0.140E+02
  1260  0.119E+05  0.342E+03  0.490E-01  0.400E+01 -0.139E+02
  1261  0.120E+05  0.342E+03  0.490E-01  0.402E+01 -0.140E+02
  1262  0.120E+05  0.342E+03  0.490E-01  0.402E+01 -0.140E+02
  1263  0.120E+05  0.342E+03  0.480E-01  0.405E+01 -0.141E+02
  1264  0.120E+05  0.342E+03  0.470E-01  0.405E+01 -0.141E+02
  1265  0.120E+05  0.342E+03  0.460E-01  0.408E+01 -0.142E+02
  1266  0.120E+05  0.342E+03  0.450E-01  0.408E+01 -0.142E+02
  1267  0.120E+05  0.342E+03  0.440E-01  0.408E+01 -0.142E+02
  1268  0.120E+05  0.342E+03  0.420E-01  0.408E+01 -0.142E+02
  1269  0.120E+05  0.342E+03  0.410E-01  0.411E+01 -0.143E+02
  1270  0.120E+05  0.342E+03  0.400E-01  0.386E+01 -0.144E+02
  1271  0.120E+05  0.342E+03  0.390E-01  0.386E+01 -0.144E+02
  1272  0.121E+05  0.342E+03  0.380E-01  0.383E+01 -0.143E+02
  1273  0.121E+05  0.342E+03  0.360E-01  0.383E+01 -0.143E+02
  1274  0.121E+05  0.342E+03  0.350E-01  0.383E+01 -0.143E+02
  1275  0.121E+05  0.343E+03  0.340E-01  0.358E+01 -0.144E+02
[...]
  133   3.929E+04  6.031E+04  1.316E+00  3.171E+02  4.774E-03
  134   3.959E+04  6.008E+04  1.320E+00  3.172E+02  4.702E-03
  135   3.989E+04  5.986E+04  1.324E+00  3.172E+02  4.830E-03
  136   4.018E+04  5.963E+04  1.327E+00  3.172E+02  4.838E-03
  137   4.048E+04  5.941E+04  1.331E+00  3.173E+02  4.743E-03
  138   4.077E+04  5.918E+04  1.335E+00  3.175E+02  4.624E-03
  139   4.107E+04  5.896E+04  1.339E+00  3.175E+02  4.619E-03
  140   4.137E+04  5.874E+04  1.343E+00  3.176E+02  4.634E-03
  141   4.166E+04  5.852E+04  1.346E+00  3.176E+02  4.599E-03
  142   4.196E+04  5.830E+04  1.350E+00  3.176E+02  4.590E-03
  143   4.225E+04  5.808E+04  1.354E+00  3.176E+02  4.590E-03
  144   4.255E+04  5.786E+04  1.358E+00  3.177E+02  4.543E-03
  145   4.284E+04  5.764E+04  1.361E+00  3.177E+02  4.472E-03
  146   4.314E+04  5.742E+04  1.365E+00  3.178E+02  4.436E-03
  147   4.344E+04  5.720E+04  1.370E+00  3.179E+02  4.514E-03
  148   4.373E+04  5.699E+04  1.374E+00  3.180E+02  4.526E-03
  149   4.403E+04  5.677E+04  1.378E+00  3.181E+02  4.487E-03
  150   4.432E+04  5.655E+04  1.382E+00  3.182E+02  4.380E-03
  151   4.462E+04  5.634E+04  1.386E+00  3.183E+02  4.389E-03
  152   4.491E+04  5.612E+04  1.390E+00  3.184E+02  4.354E-03
  153   4.521E+04  5.591E+04  1.394E+00  3.186E+02  4.116E-03
  154   4.551E+04  5.570E+04  1.398E+00  3.187E+02  4.114E-03
  155   4.580E+04  5.549E+04  1.402E+00  3.187E+02  4.200E-03
  156   4.610E+04  5.527E+04  1.406E+00  3.187E+02  4.189E-03
  157   4.639E+04  5.506E+04  1.410E+00  3.188E+02  4.061E-03
  158   4.669E+04  5.485E+04  1.415E+00  3.189E+02  3.927E-03
  159   4.698E+04  5.464E+04  1.419E+00  3.190E+02  3.857E-03
  160   4.728E+04  5.443E+04  1.423E+00  3.191E+02  3.771E-03
  161   4.758E+04  5.423E+04  1.427E+00  3.191E+02  3.768E-03
  162   4.787E+04  5.402E+04  1.431E+00  3.192E+02  3.858E-03
  163   4.817E+04  5.381E+04  1.435E+00  3.192E+02  3.898E-03
  164   4.846E+04  5.360E+04  1.439E+00  3.193E+02  3.805E-03
  165   4.876E+04  5.340E+04  1.443E+00  3.194E+02  3.569E-03
  166   4.905E+04  5.319E+04  1.448E+00  3.195E+02  3.612E-03
  167   4.935E+04  5.299E+04  1.452E+00  3.195E+02  3.668E-03
  168   4.964E+04  5.278E+04  1.457E+00  3.196E+02  3.711E-03
  169   4.996E+04  5.257E+04  1.462E+00  3.199E+02  3.609E-03
  170   5.028E+04  5.234E+04  1.467E+00  3.201E+02  3.475E-03
  171   5.063E+04  5.211E+04  1.472E+00  3.202E+02  3.373E-03
  172   5.099E+04  5.186E+04  1.477E+00  3.204E+02  3.191E-03
  173   5.138E+04  5.160E+04  1.483E+00  3.205E+02  3.019E-03
  174   5.178E+04  5.132E+04  1.489E+00  3.205E+02  2.985E-03
  175   5.221E+04  5.104E+04  1.495E+00  3.206E+02  2.934E-03
  176   5.266E+04  5.073E+04  1.501E+00  3.207E+02  2.864E-03
  177   5.313E+04  5.042E+04  1.508E+00  3.207E+02  2.909E-03
  178   5.363E+04  5.009E+04  1.516E+00  3.208E+02  2.874E-03
  179   5.416E+04  4.974E+04  1.525E+00  3.213E+02  2.813E-03
  180   5.471E+04  4.937E+04  1.541E+00  3.232E+02  1.927E-03
  181   5.530E+04  4.899E+04  1.552E+00  3.240E+02  1.669E-03
  182   5.592E+04  4.859E+04  1.562E+00  3.243E+02  1.620E-03
  183   5.657E+04  4.818E+04  1.575E+00  3.249E+02  1.489E-03
  184   5.725E+04  4.774E+04  1.587E+00  3.253E+02  1.418E-03
  185   5.797E+04  4.729E+04  1.598E+00  3.254E+02  1.401E-03
  186   5.873E+04  4.681E+04  1.610E+00  3.255E+02  1.327E-03
  187   5.953E+04  4.631E+04  1.624E+00  3.258E+02  1.219E-03
  188   6.037E+04  4.579E+04  1.637E+00  3.259E+02  1.233E-03
  189   6.126E+04  4.525E+04  1.651E+00  3.259E+02  1.288E-03
  190   6.220E+04  4.468E+04  1.666E+00  3.259E+02  1.285E-03
  191   6.318E+04  4.409E+04  1.683E+00  3.260E+02  1.315E-03
  192   6.422E+04  4.347E+04  1.703E+00  3.267E+02  1.159E-03
  193   6.532E+04  4.283E+04  1.723E+00  3.271E+02  1.040E-03
  194   6.648E+04  4.216E+04  1.744E+00  3.274E+02  9.247E-04
  195   6.769E+04  4.146E+04  1.768E+00  3.280E+02  7.674E-04
  196   6.898E+04  4.073E+04  1.793E+00  3.288E+02  4.181E-04
  197   7.033E+04  3.998E+04  1.821E+00  3.294E+02  3.019E-04
  198   7.176E+04  3.919E+04  1.850E+00  3.300E+02  3.518E-04
  199   7.326E+04  3.838E+04  1.880E+00  3.304E+02  4.053E-04
  200   7.484E+04  3.754E+04  1.911E+00  3.306E+02  2.108E-04
  201   7.650E+04  3.667E+04  1.945E+00  3.309E+02  1.840E-04
  202   7.826E+04  3.577E+04  1.987E+00  3.321E+02  1.609E-04
  203   8.012E+04  3.483E+04  2.029E+00  3.328E+02  2.880E-04
  204   8.207E+04  3.387E+04  2.071E+00  3.329E+02  3.039E-04
  205   8.413E+04  3.288E+04  2.116E+00  3.329E+02  2.851E-04
  206   8.629E+04  3.185E+04  2.173E+00  3.343E+02  9.148E-05
  207   8.858E+04  3.080E+04  2.232E+00  3.354E+02  6.000E-05
  208   9.100E+04  2.972E+04  2.296E+00  3.362E+02  1.464E-04
  209   9.354E+04  2.861E+04  2.360E+00  3.363E+02  1.449E-04
  210   9.621E+04  2.748E+04  2.435E+00  3.371E+02  1.360E-04
  211   9.903E+04  2.632E+04  2.519E+00  3.381E+02  2.348E-04
  212   1.020E+05  2.515E+04  2.614E+00  3.397E+02  1.930E-04
  213   1.049E+05  2.402E+04  2.702E+00  3.399E+02  1.360E-04
  214   1.079E+05  2.294E+04  2.796E+00  3.403E+02  9.800E-05
  215   1.108E+05  2.189E+04  2.897E+00  3.409E+02  7.780E-05
  216   1.137E+05  2.087E+04  3.002E+00  3.416E+02  5.283E-05
  217   1.167E+05  1.989E+04  3.116E+00  3.425E+02  3.300E-05
  218   1.196E+05  1.895E+04  3.236E+00  3.436E+02  3.200E-05
  219   1.225E+05  1.804E+04  3.393E+00  3.479E+02  2.639E-05
  220   1.255E+05  1.717E+04  3.526E+00  3.489E+02  2.300E-05
  221   1.284E+05  1.634E+04  3.658E+00  3.494E+02  1.817E-05
  222   1.314E+05  1.553E+04  3.924E+00  3.616E+02  4.375E-06
  223   1.344E+05  1.476E+04  4.128E+00  3.668E+02  4.000E-06
  224   1.373E+05  1.405E+04  4.316E+00  3.702E+02  4.000E-06
  225   1.403E+05  1.337E+04  4.530E+00  3.750E+02  3.000E-06
  226   1.432E+05  1.271E+04  4.727E+00  3.775E+02  2.000E-06
  pert state sounding from comp, grid%ph_1, pp, alp, grid%t_1, qv 
    1   0.000E+00 -1.920E+00  2.172E-02 -2.638E+00  1.491E-02
    2   5.911E+00 -5.338E+00  2.217E-02 -2.169E+00  1.496E-02
    3   1.195E+01 -8.751E+00  2.236E-02 -1.351E+00  1.497E-02
    4   1.801E+01 -1.214E+01  2.243E-02 -6.515E-01  1.491E-02
    5   2.405E+01 -1.551E+01  2.263E-02 -1.416E-01  1.495E-02
    6   3.013E+01 -1.888E+01  2.284E-02  8.013E-01  1.502E-02
    7   3.624E+01 -2.222E+01  2.232E-02  1.367E+00  1.487E-02
    8   4.214E+01 -2.550E+01  2.248E-02  1.908E+00  1.474E-02
    9   4.807E+01 -2.871E+01  2.190E-02  2.193E+00  1.454E-02
   10   5.378E+01 -3.185E+01  2.226E-02  2.706E+00  1.434E-02
   11   5.958E+01 -3.490E+01  2.237E-02  3.352E+00  1.407E-02
   12   6.538E+01 -3.784E+01  2.126E-02  3.838E+00  1.379E-02
   13   7.079E+01 -4.070E+01  2.094E-02  4.095E+00  1.361E-02
   14   7.608E+01 -4.352E+01  2.044E-02  4.039E+00  1.359E-02
   15   8.119E+01 -4.630E+01  2.049E-02  4.236E+00  1.339E-02
   16   8.630E+01 -4.901E+01  2.052E-02  4.394E+00  1.324E-02
   17   9.140E+01 -5.168E+01  2.009E-02  4.365E+00  1.316E-02
   18   9.634E+01 -5.432E+01  2.056E-02  4.641E+00  1.309E-02
   19   1.014E+02 -5.695E+01  2.029E-02  4.643E+00  1.311E-02
   20   1.064E+02 -5.955E+01  2.032E-02  4.741E+00  1.304E-02
   21   1.114E+02 -6.215E+01  2.042E-02  4.819E+00  1.310E-02
   22   1.163E+02 -6.476E+01  2.085E-02  4.990E+00  1.312E-02
   23   1.214E+02 -6.734E+01  2.079E-02  5.096E+00  1.296E-02
   24   1.265E+02 -6.985E+01  2.019E-02  5.093E+00  1.278E-02
   25   1.313E+02 -7.233E+01  2.068E-02  5.384E+00  1.275E-02
   26   1.363E+02 -7.480E+01  2.072E-02  5.479E+00  1.278E-02
   27   1.413E+02 -7.728E+01  2.030E-02  5.355E+00  1.291E-02
   28   1.461E+02 -7.977E+01  2.073E-02  5.553E+00  1.282E-02
   29   1.511E+02 -8.224E+01  2.048E-02  5.485E+00  1.288E-02
   30   1.559E+02 -8.473E+01  2.080E-02  5.608E+00  1.293E-02
   31   1.609E+02 -8.722E+01  2.092E-02  5.649E+00  1.297E-02
   32   1.658E+02 -8.969E+01  2.061E-02  5.631E+00  1.282E-02
   33   1.707E+02 -9.213E+01  2.074E-02  5.702E+00  1.285E-02
   34   1.755E+02 -9.459E+01  2.134E-02  5.855E+00  1.296E-02
   35   1.806E+02 -9.701E+01  2.106E-02  5.984E+00  1.262E-02
   36   1.855E+02 -9.936E+01  2.109E-02  6.119E+00  1.256E-02
   37   1.904E+02 -1.017E+02  2.113E-02  6.201E+00  1.265E-02
   38   1.953E+02 -1.041E+02  2.132E-02  6.288E+00  1.271E-02
   39   2.003E+02 -1.064E+02  2.134E-02  6.507E+00  1.238E-02
   40   2.052E+02 -1.086E+02  2.049E-02  6.673E+00  1.187E-02
   41   2.099E+02 -1.106E+02  2.020E-02  6.845E+00  1.163E-02
   42   2.145E+02 -1.127E+02  1.971E-02  6.886E+00  1.157E-02
   43   2.189E+02 -1.146E+02  1.960E-02  6.930E+00  1.147E-02
   44   2.232E+02 -1.166E+02  1.982E-02  6.938E+00  1.164E-02
   45   2.276E+02 -1.187E+02  2.020E-02  6.988E+00  1.174E-02
   46   2.321E+02 -1.206E+02  1.984E-02  7.099E+00  1.134E-02
   47   2.365E+02 -1.225E+02  1.945E-02  7.240E+00  1.090E-02
   48   2.408E+02 -1.243E+02  1.926E-02  7.331E+00  1.089E-02
   49   2.449E+02 -1.260E+02  1.893E-02  7.468E+00  1.054E-02
   50   2.490E+02 -1.276E+02  1.871E-02  7.570E+00  1.040E-02
   51   2.530E+02 -1.293E+02  1.851E-02  7.607E+00  1.044E-02
   52   2.569E+02 -1.310E+02  1.907E-02  7.591E+00  1.084E-02
   53   2.610E+02 -1.328E+02  2.003E-02  7.580E+00  1.142E-02
   54   2.653E+02 -1.347E+02  2.074E-02  7.674E+00  1.157E-02
   55   2.698E+02 -1.366E+02  2.074E-02  7.921E+00  1.113E-02
   56   2.743E+02 -1.383E+02  1.969E-02  8.139E+00  1.035E-02
   57   2.785E+02 -1.398E+02  1.854E-02  8.306E+00  9.794E-03
   58   2.823E+02 -1.412E+02  1.822E-02  8.363E+00  9.791E-03
   59   2.860E+02 -1.427E+02  1.844E-02  8.410E+00  1.003E-02
   60   2.898E+02 -1.442E+02  1.876E-02  8.361E+00  1.036E-02
   61   2.937E+02 -1.458E+02  1.946E-02  8.295E+00  1.085E-02
   62   2.977E+02 -1.475E+02  2.001E-02  8.272E+00  1.106E-02
   63   3.019E+02 -1.493E+02  2.037E-02  8.306E+00  1.105E-02
   64   3.061E+02 -1.510E+02  1.994E-02  8.452E+00  1.055E-02
   65   3.103E+02 -1.524E+02  1.910E-02  8.727E+00  9.540E-03
   66   3.141E+02 -1.536E+02  1.777E-02  8.981E+00  8.665E-03
   67   3.176E+02 -1.546E+02  1.666E-02  9.188E+00  8.052E-03
   68   3.208E+02 -1.555E+02  1.598E-02  9.325E+00  7.859E-03
   69   3.238E+02 -1.563E+02  1.551E-02  9.405E+00  7.731E-03
   70   3.266E+02 -1.571E+02  1.537E-02  9.529E+00  7.589E-03
   71   3.294E+02 -1.579E+02  1.512E-02  9.635E+00  7.392E-03
   72   3.321E+02 -1.586E+02  1.542E-02  9.733E+00  7.569E-03
   73   3.349E+02 -1.594E+02  1.593E-02  9.816E+00  7.789E-03
   74   3.378E+02 -1.602E+02  1.530E-02  1.002E+01  7.243E-03
   75   3.405E+02 -1.609E+02  1.581E-02  1.012E+01  7.456E-03
   76   3.433E+02 -1.616E+02  1.548E-02  1.026E+01  7.459E-03
   77   3.461E+02 -1.623E+02  1.543E-02  1.039E+01  7.203E-03
   78   3.488E+02 -1.629E+02  1.449E-02  1.052E+01  6.727E-03
   79   3.512E+02 -1.634E+02  1.494E-02  1.052E+01  7.184E-03
   80   3.538E+02 -1.641E+02  1.473E-02  1.051E+01  7.307E-03
   81   3.563E+02 -1.648E+02  1.491E-02  1.056E+01  7.201E-03
   82   3.588E+02 -1.654E+02  1.527E-02  1.062E+01  7.280E-03
   83   3.614E+02 -1.661E+02  1.557E-02  1.080E+01  7.172E-03
   84   3.641E+02 -1.667E+02  1.587E-02  1.108E+01  6.877E-03
   85   3.669E+02 -1.672E+02  1.539E-02  1.127E+01  6.682E-03
   86   3.695E+02 -1.677E+02  1.469E-02  1.137E+01  6.559E-03
   87   3.719E+02 -1.680E+02  1.327E-02  1.168E+01  5.491E-03
   88   3.739E+02 -1.681E+02  1.320E-02  1.199E+01  4.928E-03
   89   3.759E+02 -1.681E+02  1.248E-02  1.229E+01  4.743E-03
   90   3.777E+02 -1.681E+02  1.244E-02  1.293E+01  3.996E-03
   91   3.795E+02 -1.679E+02  1.412E-02  1.368E+01  3.941E-03
   92   3.817E+02 -1.677E+02  1.311E-02  1.405E+01  4.134E-03
   93   3.837E+02 -1.675E+02  1.112E-02  1.436E+01  3.748E-03
   94   3.851E+02 -1.672E+02  1.065E-02  1.455E+01  3.759E-03
   95   3.864E+02 -1.670E+02  1.067E-02  1.464E+01  4.156E-03
   96   3.877E+02 -1.669E+02  1.019E-02  1.465E+01  4.191E-03
   97   3.888E+02 -1.668E+02  1.018E-02  1.464E+01  4.313E-03
   98   3.900E+02 -1.667E+02  1.074E-02  1.469E+01  4.498E-03
   99   3.912E+02 -1.666E+02  1.173E-02  1.479E+01  4.787E-03
  100   3.927E+02 -1.667E+02  1.235E-02  1.479E+01  5.227E-03
  101   3.944E+02 -1.668E+02  1.233E-02  1.482E+01  5.293E-03
  102   3.961E+02 -1.670E+02  1.299E-02  1.488E+01  5.482E-03
  103   3.979E+02 -1.672E+02  1.402E-02  1.505E+01  5.711E-03
  104   3.999E+02 -1.674E+02  1.389E-02  1.518E+01  5.558E-03
  105   4.019E+02 -1.676E+02  1.323E-02  1.536E+01  5.156E-03
  106   4.037E+02 -1.676E+02  1.295E-02  1.548E+01  4.990E-03
  107   4.055E+02 -1.677E+02  1.279E-02  1.558E+01  5.057E-03
  108   4.072E+02 -1.678E+02  1.273E-02  1.566E+01  5.072E-03
  109   4.089E+02 -1.679E+02  1.279E-02  1.573E+01  5.099E-03
  110   4.106E+02 -1.680E+02  1.275E-02  1.579E+01  5.115E-03
  111   4.122E+02 -1.681E+02  1.282E-02  1.585E+01  5.129E-03
  112   4.139E+02 -1.681E+02  1.319E-02  1.599E+01  5.145E-03
  113   4.157E+02 -1.682E+02  1.307E-02  1.604E+01  5.099E-03
  114   4.174E+02 -1.683E+02  1.286E-02  1.613E+01  5.041E-03
  115   4.190E+02 -1.684E+02  1.293E-02  1.620E+01  5.015E-03
  116   4.207E+02 -1.684E+02  1.272E-02  1.623E+01  5.005E-03
  117   4.223E+02 -1.685E+02  1.292E-02  1.634E+01  4.985E-03
  118   4.240E+02 -1.686E+02  1.327E-02  1.647E+01  4.954E-03
  119   4.257E+02 -1.686E+02  1.306E-02  1.654E+01  4.930E-03
  120   4.273E+02 -1.686E+02  1.280E-02  1.664E+01  4.826E-03
  121   4.289E+02 -1.686E+02  1.273E-02  1.670E+01  4.796E-03
  122   4.305E+02 -1.687E+02  1.247E-02  1.671E+01  4.789E-03
  123   4.320E+02 -1.687E+02  1.243E-02  1.675E+01  4.786E-03
  124   4.335E+02 -1.687E+02  1.247E-02  1.677E+01  4.782E-03
  125   4.350E+02 -1.687E+02  1.237E-02  1.676E+01  4.793E-03
  126   4.364E+02 -1.687E+02  1.254E-02  1.682E+01  4.776E-03
  127   4.379E+02 -1.687E+02  1.273E-02  1.690E+01  4.700E-03
  128   4.394E+02 -1.687E+02  1.248E-02  1.686E+01  4.741E-03
  129   4.409E+02 -1.687E+02  1.228E-02  1.685E+01  4.788E-03
  130   4.423E+02 -1.687E+02  1.265E-02  1.687E+01  4.823E-03
  131   4.438E+02 -1.687E+02  1.281E-02  1.689E+01  4.833E-03
  132   4.453E+02 -1.687E+02  1.310E-02  1.696E+01  4.856E-03
  133   4.468E+02 -1.688E+02  1.349E-02  1.710E+01  4.774E-03
  134   4.485E+02 -1.688E+02  1.337E-02  1.716E+01  4.702E-03
  135   4.501E+02 -1.688E+02  1.335E-02  1.722E+01  4.830E-03
  136   4.517E+02 -1.688E+02  1.325E-02  1.724E+01  4.838E-03
  137   4.532E+02 -1.688E+02  1.329E-02  1.735E+01  4.743E-03
  138   4.548E+02 -1.688E+02  1.369E-02  1.751E+01  4.624E-03
  139   4.564E+02 -1.687E+02  1.339E-02  1.754E+01  4.619E-03
  140   4.580E+02 -1.687E+02  1.292E-02  1.757E+01  4.634E-03
  141   4.595E+02 -1.687E+02  1.286E-02  1.760E+01  4.599E-03
  142   4.609E+02 -1.687E+02  1.284E-02  1.762E+01  4.590E-03
  143   4.623E+02 -1.686E+02  1.289E-02  1.764E+01  4.590E-03
  144   4.638E+02 -1.686E+02  1.281E-02  1.766E+01  4.543E-03
  145   4.652E+02 -1.685E+02  1.283E-02  1.771E+01  4.472E-03
  146   4.666E+02 -1.685E+02  1.298E-02  1.777E+01  4.436E-03
  147   4.680E+02 -1.684E+02  1.363E-02  1.792E+01  4.514E-03
  148   4.695E+02 -1.684E+02  1.398E-02  1.804E+01  4.526E-03
  149   4.711E+02 -1.683E+02  1.354E-02  1.810E+01  4.487E-03
  150   4.727E+02 -1.682E+02  1.327E-02  1.819E+01  4.380E-03
  151   4.741E+02 -1.682E+02  1.346E-02  1.828E+01  4.389E-03
  152   4.756E+02 -1.681E+02  1.342E-02  1.837E+01  4.354E-03
  153   4.771E+02 -1.680E+02  1.342E-02  1.858E+01  4.116E-03
  154   4.785E+02 -1.678E+02  1.350E-02  1.867E+01  4.114E-03
  155   4.800E+02 -1.677E+02  1.290E-02  1.868E+01  4.200E-03
  156   4.813E+02 -1.676E+02  1.276E-02  1.873E+01  4.189E-03
  157   4.826E+02 -1.675E+02  1.278E-02  1.881E+01  4.061E-03
  158   4.839E+02 -1.673E+02  1.292E-02  1.895E+01  3.927E-03
  159   4.852E+02 -1.671E+02  1.285E-02  1.904E+01  3.857E-03
  160   4.865E+02 -1.669E+02  1.250E-02  1.912E+01  3.771E-03
  161   4.877E+02 -1.667E+02  1.218E-02  1.914E+01  3.768E-03
  162   4.888E+02 -1.665E+02  1.218E-02  1.917E+01  3.858E-03
  163   4.899E+02 -1.664E+02  1.239E-02  1.920E+01  3.898E-03
  164   4.911E+02 -1.662E+02  1.230E-02  1.926E+01  3.805E-03
  165   4.922E+02 -1.660E+02  1.248E-02  1.943E+01  3.569E-03
  166   4.934E+02 -1.657E+02  1.272E-02  1.950E+01  3.612E-03
  167   4.946E+02 -1.655E+02  1.227E-02  1.954E+01  3.668E-03
  168   4.957E+02 -1.653E+02  1.249E-02  1.963E+01  3.711E-03
  169   4.969E+02 -1.650E+02  1.349E-02  1.993E+01  3.609E-03
  170   4.984E+02 -1.648E+02  1.347E-02  2.008E+01  3.475E-03
  171   5.000E+02 -1.645E+02  1.249E-02  2.023E+01  3.373E-03
  172   5.013E+02 -1.641E+02  1.230E-02  2.041E+01  3.191E-03
  173   5.027E+02 -1.636E+02  1.139E-02  2.048E+01  3.019E-03
  174   5.039E+02 -1.632E+02  1.089E-02  2.054E+01  2.985E-03
  175   5.050E+02 -1.626E+02  1.089E-02  2.060E+01  2.934E-03
  176   5.062E+02 -1.621E+02  1.072E-02  2.066E+01  2.864E-03
  177   5.074E+02 -1.615E+02  1.072E-02  2.068E+01  2.909E-03
  178   5.086E+02 -1.608E+02  1.091E-02  2.077E+01  2.874E-03
  179   5.099E+02 -1.602E+02  1.304E-02  2.129E+01  2.813E-03
  180   5.120E+02 -1.593E+02  1.940E-02  2.325E+01  1.927E-03
  181   5.166E+02 -1.581E+02  1.386E-02  2.405E+01  1.669E-03
  182   5.192E+02 -1.569E+02  9.385E-03  2.427E+01  1.620E-03
  183   5.201E+02 -1.555E+02  1.053E-02  2.489E+01  1.489E-03
  184   5.214E+02 -1.540E+02  1.036E-02  2.530E+01  1.418E-03
  185   5.227E+02 -1.525E+02  7.703E-03  2.537E+01  1.401E-03
  186   5.228E+02 -1.508E+02  7.850E-03  2.551E+01  1.327E-03
  187   5.229E+02 -1.491E+02  8.408E-03  2.580E+01  1.219E-03
  188   5.233E+02 -1.472E+02  7.363E-03  2.588E+01  1.233E-03
  189   5.231E+02 -1.453E+02  7.420E-03  2.593E+01  1.288E-03
  190   5.229E+02 -1.433E+02  7.171E-03  2.590E+01  1.285E-03
  191   5.225E+02 -1.412E+02  7.730E-03  2.597E+01  1.315E-03
  192   5.223E+02 -1.390E+02  1.061E-02  2.667E+01  1.159E-03
  193   5.240E+02 -1.366E+02  9.031E-03  2.709E+01  1.040E-03
  194   5.246E+02 -1.340E+02  8.056E-03  2.741E+01  9.247E-04
  195   5.245E+02 -1.312E+02  8.595E-03  2.802E+01  7.674E-04
  196   5.247E+02 -1.282E+02  8.859E-03  2.875E+01  4.181E-04
  197   5.250E+02 -1.248E+02  8.226E-03  2.943E+01  3.019E-04
  198   5.247E+02 -1.213E+02  7.563E-03  3.004E+01  3.518E-04
  199   5.237E+02 -1.177E+02  6.637E-03  3.037E+01  4.053E-04
  200   5.218E+02 -1.138E+02  5.813E-03  3.060E+01  2.108E-04
  201   5.190E+02 -1.098E+02  6.225E-03  3.095E+01  1.840E-04
  202   5.163E+02 -1.056E+02  1.032E-02  3.205E+01  1.609E-04
  203   5.172E+02 -1.013E+02  8.986E-03  3.276E+01  2.880E-04
  204   5.166E+02 -9.697E+01  5.143E-03  3.287E+01  3.039E-04
  205   5.120E+02 -9.248E+01  5.493E-03  3.291E+01  2.851E-04
  206   5.073E+02 -8.775E+01  1.254E-02  3.432E+01  9.148E-05
  207   5.097E+02 -8.276E+01  9.488E-03  3.536E+01  6.000E-05
  208   5.086E+02 -7.769E+01  9.995E-03  3.621E+01  1.464E-04
  209   5.076E+02 -7.254E+01  5.242E-03  3.627E+01  1.449E-04
  210   5.009E+02 -6.726E+01  9.626E-03  3.709E+01  1.360E-04
  211   4.987E+02 -6.195E+01  9.889E-03  3.809E+01  2.348E-04
  212   4.964E+02 -5.675E+01  1.272E-02  3.965E+01  1.930E-04
  213   4.968E+02 -5.168E+01  6.158E-03  3.992E+01  1.360E-04
  214   4.896E+02 -4.674E+01  6.111E-03  4.031E+01  9.800E-05
  215   4.821E+02 -4.193E+01  8.547E-03  4.094E+01  7.780E-05
  216   4.769E+02 -3.727E+01  9.424E-03  4.157E+01  5.283E-05
  217   4.722E+02 -3.275E+01  1.031E-02  4.255E+01  3.300E-05
  218   4.680E+02 -2.838E+01  1.359E-02  4.361E+01  3.200E-05
  219   4.665E+02 -2.418E+01  3.402E-02  4.792E+01  2.639E-05
  220   4.822E+02 -2.016E+01  7.349E-03  4.893E+01  2.300E-05
  221   4.745E+02 -1.630E+01  6.706E-03  4.936E+01  1.817E-05
  222   4.659E+02 -1.257E+01  1.167E-01  6.161E+01  4.375E-06
  223   5.418E+02 -9.058E+00  2.507E-02  6.679E+01  4.000E-06
  224   5.458E+02 -5.746E+00  2.700E-02  7.019E+01  4.000E-06
  225   5.504E+02 -2.579E+00  4.243E-02  7.498E+01  3.000E-06
  226   5.641E+02 -5.154E-01  5.454E-03  7.746E+01  2.000E-06
   wrf: SUCCESS COMPLETE IDEAL INIT
